%chk=[C]1NC2dCCdCCdCNdC2S1.chk
%NProcShared=20
# opt freq b3lyp/6-31g(2df,p)

Title Card Required 

0  1
C           1.29217         0.51012         0.12861
N           2.09072        -0.39161        -0.65414
C           2.84360        -1.06129         0.33816
C           2.88557        -2.38761         0.40107
C           3.66005        -3.27671         1.23679
C           3.71676        -3.29106         2.56231
C           3.02575        -2.37192         3.43327
C           3.15225        -1.04435         3.43241
N           3.88771        -0.27189         2.56326
C           3.26939        -0.09293         1.45277
S           2.10251         1.31310         1.33937
H           2.75707         0.28412        -1.06003
H           2.19613        -2.91539        -0.25970
H           4.19577        -4.04566         0.67678
H           4.27979        -4.08176         3.06194
H           2.34431        -2.82875         4.14512
H           2.58767        -0.47281         4.16736

