%chk=[C]1dNNC2dCCdCC2dCNdNCdCCdC1.chk
%NProcShared=20
# opt freq b3lyp/6-31g(2df,p)

Title Card Required 

0  2
C           1.18316        -0.67286         1.29001
N           2.01038        -0.24923         0.56607
N           2.93151         0.61589         1.14068
C           4.31029         0.44072         1.01781
C           5.17570         0.86402         0.06625
C           6.55470         0.67281         0.51418
C           6.56398         0.11926         1.73605
C           5.18282        -0.06986         2.11062
C           4.82305        -0.63749         3.27009
N           3.52145        -0.81577         3.53182
N           3.07107        -1.07408         4.66050
C           1.73958        -0.80514         4.50669
C           0.77407        -1.71761         4.46217
C          -0.14829        -1.59954         3.32710
C           0.04353        -1.20470         2.03515
H           2.74022         0.74318         2.13309
H           4.91976         1.37824        -0.84752
H           7.43595         0.96672        -0.03447
H           7.41110        -0.14260         2.34833
H           5.53738        -0.97465         4.00799
H           1.55845         0.04767         3.86143
H           0.75245        -2.52182         5.20275
H          -1.15460        -1.89699         3.61793
H          -0.81443        -1.26809         1.37202

