%chk=[C]1dCCdCCdCC2dCC2dCCdCCNC1.chk
%NProcShared=20
# opt freq b3lyp/6-31g(2df,p)

Title Card Required 

0  2
C           1.44128         0.79990        -0.92035
C           2.43486         0.22833        -0.29117
C           3.48704         0.89835        -0.90282
C           4.78549         0.75338        -0.79358
C           5.41886         1.65242        -1.65828
C           6.72361         1.80264        -1.80049
C           7.20600         2.73509        -2.68392
C           8.30873         3.23537        -3.15488
C           7.08990         3.82231        -3.70755
C           5.76777         3.97790        -3.84944
C           4.64248         4.66457        -4.51105
C           3.41161         4.21311        -4.07310
C           1.89477         4.20560        -4.10888
N           1.12113         2.81683        -3.30565
C           0.69921         1.80868        -1.89279
H           2.64087        -0.57888         0.43519
H           3.11661         1.65352        -1.61627
H           5.27935         0.05931        -0.15366
H           4.70141         2.22909        -2.21194
H           7.37122         1.17673        -1.20506
H           9.30557         3.00324        -2.92691
H           5.19770         3.33888        -3.24833
H           4.91364         5.41622        -5.25676
H           3.41911         3.48303        -3.29557
H           1.67967         4.13854        -5.21607
H           1.55363         5.25962        -3.92851
H           0.16355         3.06249        -3.58766
H           0.16186         0.95118        -2.37077
H          -0.00722         2.23239        -1.15758

