%chk=[C][N]C1dCqNdCdNrC2dCC2dCCdC1.chk
%NProcShared=20
# opt freq b3lyp/6-31g(2df,p)

Title Card Required 

0  1
C           1.32930        -0.68138        -0.21442
N           2.72189        -0.24565        -0.00237
C           3.17289         0.50487        -1.04375
C           2.68116         1.63414        -1.65899
N           1.67071         2.49892        -1.22375
C           1.16153         2.26932        -0.19166
N           0.66215         2.17286         0.87772
C           3.23535         1.98728        -2.97604
C           3.56916         1.79619        -4.21675
C           2.74457         0.73251        -4.02852
C           3.14986        -0.51255        -3.70800
C           4.30842        -0.73999        -2.87277
C           4.35429        -0.18447        -1.64860
H          -0.34581         2.00804         0.84419
H           4.12393         2.24496        -5.00220
H           2.51715        -1.37252        -3.91149
H           5.14191        -1.28678        -3.29646
H           5.25984        -0.25583        -1.05606

