%chk=[C]C1dCqCrCC2dCCdCCdCN21.chk
%NProcShared=20
# opt freq b3lyp/6-31g(2df,p)

Title Card Required 

0  2
C           2.01293        -1.23658        -1.41057
C           3.29343        -1.80029        -0.76610
C           3.16794        -1.32709         0.47869
C           2.16493        -2.51172         0.94330
C           4.68875        -0.99054         0.51707
C           5.31909        -2.27593         0.14371
C           6.54245        -2.58693         0.67471
C           7.15928        -3.85734         0.77256
C           6.53936        -5.03940         0.60525
C           5.15380        -5.23185         0.20160
C           4.23364        -4.35446        -0.30837
N           4.33517        -2.93512        -0.59863
H           1.11993        -2.18029         1.00922
H           2.47111        -3.14813         1.76662
H           1.99540        -3.25515         0.10692
H           5.09392        -0.42889         1.35388
H           4.95086        -0.34192        -0.36407
H           7.10964        -1.77435         1.10557
H           8.19019        -3.84716         1.12864
H           7.12891        -5.92932         0.83777
H           4.88378        -6.28587         0.33666
H           3.24540        -4.78874        -0.45960

