%chk=[N]C1dCCdCc2ccccc2NdC1.chk
%NProcShared=20
# opt freq b3lyp/6-31g(2df,p)

Title Card Required 

0  1
N           2.19897         0.22783        -0.91293
C           3.43131        -0.53420        -0.85679
C           3.36790        -1.69431        -0.22008
C           4.58667        -2.05674         0.43568
C           5.35852        -2.88964        -0.23400
C           6.67027        -2.31083        -0.47308
C           7.56384        -1.88334         0.52849
C           8.85090        -1.45507         0.21014
C           9.22496        -1.61374        -1.10047
C           8.17246        -1.75494        -2.05096
C           6.78844        -1.64623        -1.66560
N           6.05299        -0.32661        -1.64558
C           4.83604         0.06554        -1.26504
H           2.49701        -2.34536        -0.22869
H           5.06814        -1.18989         0.92904
H           4.94059        -3.52876        -1.02057
H           7.23007        -1.81284         1.55454
H           9.55019        -1.14029         0.97704
H          10.28270        -1.79249        -1.32216
H           8.46691        -2.58027        -2.73666
H           4.78496         1.16256        -1.10781

