%chk=[O]NdCCCCdCSc1ccccn1.chk
%NProcShared=20
# opt freq b3lyp/6-31g(2df,p)

Title Card Required 

0  2
O           1.03292        -0.15975        -0.10489
N           2.39415        -0.05712        -0.01668
C           3.00259        -0.92788        -0.75766
C           4.51023        -0.95819        -0.78241
C           5.05062        -2.04744        -1.71419
C           6.56361        -2.08296        -1.75006
C           7.29221        -2.94662        -2.48190
S           9.03261        -2.88655        -2.45858
C           9.46959        -4.19868        -3.59278
C          10.18095        -3.89810        -4.75309
C          10.50907        -4.92894        -5.63477
C          10.15212        -6.23216        -5.31657
C           9.49505        -6.44983        -4.11690
N           9.14093        -5.46747        -3.25630
H           2.45943        -1.65990        -1.38206
H           4.85826        -1.11988         0.24464
H           4.85857         0.03146        -1.10119
H           4.66777        -1.87174        -2.72714
H           4.66958        -3.02177        -1.38472
H           7.07095        -1.34676        -1.12800
H           6.79925        -3.69141        -3.10075
H          10.47450        -2.87830        -4.97913
H          11.03533        -4.71475        -6.56106
H          10.37999        -7.05690        -5.98324
H           9.22307        -7.45499        -3.80674

