%chk=[S][C]dCC[SH]dc1cc1.chk
%NProcShared=20
# opt freq b3lyp/6-31g(2df,p)

Title Card Required 

0  1
S           0.95206        -0.02398         0.13072
C           2.66897        -0.15554        -0.08944
C           3.48083        -0.66362        -0.94638
C           4.94603        -0.68257        -0.99105
S           5.33382        -1.65634        -2.48364
C           6.95897        -1.55113        -2.42898
C           8.15587        -1.91248        -3.03596
C           8.16258        -1.20937        -1.84409
H           2.94020        -1.15256        -1.75330
H           5.33952        -1.19478        -0.10480
H           5.34743         0.33381        -1.02206
H           5.09714        -0.90227        -3.53420
H           8.27117        -2.49711        -4.00571
H           8.28130        -0.62881        -0.87832

