%chk=C.Cc1c2nsc1CqCdOrdNCdCCdCdN2.chk
%NProcShared=20
# opt freq b3lyp/6-31g(2df,p)

Title Card Required 

0  1
C           1.31043        -0.46098        -1.21460
C           0.38695         0.39518         1.26789
C           1.49907         1.75958         0.94954
C           2.96014         1.93199         0.04861
N           3.85952         1.24740         0.69725
S           2.65433         1.67508         2.36915
C           1.18011         3.25101         1.64875
C          -0.21257         4.32662         2.24635
C          -1.40053         6.00000         2.48831
O          -2.48564         6.38357         1.99461
N          -0.11741         5.47758         1.53064
C          -0.28571         5.42729         0.23392
C           0.99527         5.34144        -0.05979
C           1.27841         4.13189        -0.74535
C           2.50669         3.75502        -0.59493
N           3.48239         3.20793        -0.26961
H           2.22015        -0.41701        -0.62075
H           0.86186         0.42962        -1.70631
H           0.85152         0.16069        -0.54284
H           0.81763        -1.35929        -0.80902
H           0.04954         1.14627         0.53405
H           0.99264        -0.57230         1.32370
H          -0.33567        -0.19742         0.57507
H          -0.94415         7.11872         2.62519
H          -1.26273         5.03291        -0.09646
H           1.63833         5.61576         0.87232
H           0.43599         3.38792        -0.64430

