%chk=c1ccc2cccncncscc-2nnc1.chk
%NProcShared=20
# opt freq b3lyp/6-31g(2df,p)

Title Card Required 

0  1
C           1.49351         0.03776         0.09050
C           2.91384         0.19293        -0.44859
C           4.23687         0.48899        -1.46174
C           6.33249         0.60592        -1.71087
C           5.44352         0.82627        -2.61512
C           6.79563         0.80240        -2.65670
C           7.32605         1.19336        -3.77721
N           8.46168         1.68458        -3.98773
C           9.39553         0.43218        -4.54219
N          10.94634         0.20850        -3.54390
C          10.54723         1.01408        -4.70534
S          12.24365         1.52668        -4.57945
C          10.12144         1.70977        -3.37070
C           8.44208         0.89632        -2.20151
N           6.71149         0.40385        -0.82439
N           4.98688         0.00318         0.28094
C           2.91404        -0.24221         1.07868
H           0.64315         0.30450        -0.83504
H           3.67245         0.03691         0.08391
H           2.97591         0.65820        -2.05471
H           4.85713         1.02464        -3.37226
H           7.84040         0.37079        -1.30078
H           6.94555         1.37464        -4.60567
H           9.18913         1.79498        -5.30633
H          11.06994         1.75915        -6.10085
H          11.46851         1.92404        -4.67519
H           1.20607        -0.33005         1.36823

