%chk=c1cccc2c3sc-2cc3ncc1.chk
%NProcShared=20
# opt freq b3lyp/6-31g(2df,p)

Title Card Required 

0  1
C           2.44233        -0.78427         1.15786
C           2.95559         0.39835         0.52784
C           3.89536         0.93585         1.35521
C           5.21180         0.58553         0.88905
C           6.35993         0.54523         1.63628
C           6.59395         0.63563         3.02845
S           8.05222         1.65863         2.27041
C           7.77186         0.03023         1.57231
C           8.05746        -0.93300         2.53619
C           6.80388        -0.69912         3.37946
N           5.87129        -1.73466         3.14932
C           4.71742        -2.00814         2.58283
C           3.26475        -1.69334         1.77027
H           1.34393        -0.77095         1.23564
H           3.12455         0.31185        -0.54413
H           3.61453         0.86647         2.41733
H           5.30852         0.03189        -0.01647
H           9.05043        -0.86546         3.03509
H           4.60535        -3.08978         2.78110
H           3.50841        -2.32858         0.88109

