%chk=c1ccccc2ccccccn-2cccc1.chk
%NProcShared=20
# opt freq b3lyp/6-31g(2df,p)

Title Card Required 

0  1
C           1.68796        -0.28043        -0.40985
C           2.60391         0.24588         0.33385
C           3.24277         0.94660         1.32948
C           4.60406         0.93679         1.31762
C           5.73426         1.54994         2.18512
C           7.25755         1.69348         2.41110
C           7.18805         2.48787         3.51922
C           8.32214         2.77562         3.92509
C           9.31139         3.27794         4.63376
C          10.35642         2.69307         3.81224
C          11.29634         3.21279         4.53358
C          10.45593         2.24751         3.15773
N           9.02866         1.37314         2.05603
C           7.83982         0.61121         0.65036
C           6.79056        -0.33659        -0.41417
C           4.94800        -0.81927        -1.16267
C           3.16743        -1.00339        -1.45861
H           0.85158         0.31321         0.42938
H           3.45024        -0.05515        -0.09717
H           2.59131         1.41405         1.99457
H           4.91212         0.35269         0.48532
H           4.98524         2.04996         2.89685
H           6.57624         2.94481         4.17154
H           8.82260         2.29995         3.25031
H           8.94571         3.82585         5.45049
H          11.85217         2.13047         3.03820
H          11.10149         4.00854         5.68644
H          11.91759         2.81689         3.97996
H           6.64934         0.53775         0.74600
H           7.76173        -0.67815        -0.97995
H           5.56487        -1.43931        -2.06044
H           1.73144        -1.07218        -1.53994

