%chk=C1dCCdC2CdCCdC3CdCqCdC1rCdC3NdN2.chk
%NProcShared=20
# opt freq b3lyp/6-31g(2df,p)

Title Card Required 

0  1
C           3.20829        -0.17117         0.75749
C           3.43373        -0.97139        -0.31348
C           3.60404        -1.63206         1.00736
C           5.05177        -1.79134         0.98468
C           5.04391        -2.33505         2.41255
C           6.00768        -2.82073         1.64035
C           6.81831        -3.27368         2.64720
C           8.11332        -3.22202         2.33372
C           9.09458        -3.39977         3.23259
C           8.53447        -2.01448         2.35226
C           6.80991        -0.71318         2.00255
C           5.17390        -0.00054         1.51729
C          10.26782        -2.14333         1.90898
C           9.04330        -1.96506         1.23836
N           8.12199        -0.76929         0.35395
N           6.43345        -0.71670         0.12445
H           1.67645        -0.49558         0.59476
H           3.30425         0.17985        -0.91934
H           2.53986        -1.81692         1.60458
H           4.17210        -2.96773         2.58609
H           6.53399        -2.23333         0.48802
H           6.58153        -3.76924         3.51744
H           8.99496        -4.36444         4.05531
H           7.78444        -1.40660         2.61561
H           4.17094         0.62879         0.54769
H          11.40020        -1.80829         1.69578

