%chk=C1dCNC2dCN2CdCCC2dCCdCC2dC1.chk
%NProcShared=20
# opt freq b3lyp/6-31g(2df,p)

Title Card Required 

0  1
C           1.96294         0.56394        -1.33494
C           2.27889         0.12348        -0.03839
N           2.99363        -0.83209         0.73292
C           4.32315        -0.82740         0.85238
C           5.40021        -1.16823         1.41729
N           5.58001        -0.35066         0.35683
C           5.29833         0.44250        -0.70833
C           5.75859         1.20466        -1.67995
C           4.72380         1.83498        -2.47716
C           5.09925         2.96071        -3.22246
C           5.33838         4.23527        -3.64315
C           5.72276         4.00076        -4.98993
C           5.12060         2.71804        -5.04714
C           3.66992         2.45597        -3.93511
C           2.52002         1.64757        -2.70854
H           0.85790         0.32139        -0.90961
H           3.11221         0.65936        -0.24895
H           2.55812        -1.25077         1.57274
H           5.68691        -1.78356         2.25165
H           4.31518         0.55807        -1.03277
H           6.73967         1.39921        -1.97758
H           4.08301         2.68031        -1.90818
H           4.21768         0.79223        -3.20043
H           4.69389         5.09844        -3.66182
H           6.62857         4.59010        -5.39580
H           6.21155         2.22300        -5.32754
H           1.46848         1.72966        -2.81007

