%chk=C1dCCdCCdCCdCC2dCOC2dNCdCNd1.chk
%NProcShared=20
# opt freq b3lyp/6-31g(2df,p)

Title Card Required 

0  1
C           3.86897         3.47923        -0.82614
C           3.06815         2.20150        -0.39381
C           3.36998         1.03739        -1.31790
C           4.69693         0.86594        -1.20424
C           5.45063         1.89739        -1.87043
C           6.73906         2.11802        -1.69638
C           7.40896         3.14788        -2.41462
C           8.72961         3.11799        -2.51930
C           9.50359         4.06868        -3.25899
C          10.65021         4.23991        -3.91511
O          10.49796         5.52652        -4.06224
C           9.31124         5.40185        -3.41341
N           8.40395         6.28215        -3.03915
C           7.05841         6.18436        -2.64877
C           5.69456         5.60493        -2.06535
N           4.46193         4.62628        -1.34748
H           2.88320         0.97025         0.22413
H           2.79276         1.42799        -2.14720
H           5.10464         0.36538        -0.30936
H           4.88843         2.62464        -2.46826
H           7.26277         1.40717        -1.09007
H           6.83376         3.83349        -3.03078
H           9.29592         2.39630        -1.96859
H          11.35784         3.45501        -4.20363
H           7.15821         7.26800        -3.15031
H           5.33603         6.68564        -2.19056

