%chk=C1dCCdc2sccccccccncc2d1.chk
%NProcShared=20
# opt freq b3lyp/6-31g(2df,p)

Title Card Required 

0  1
C           0.96861         0.03904         0.08655
C           2.32901         0.03904         0.08655
C           2.80753        -0.65420        -0.41926
C           2.00004        -0.38821        -0.22551
S           4.84469        -1.23573        -0.84447
C           7.02766        -2.03482        -1.42796
C           7.84373        -2.84214        -2.01759
C           9.11480        -3.00986        -2.14010
C          10.06430        -3.62402        -2.58846
C          11.71972        -4.00133        -2.86419
C          10.76634        -4.49377        -3.22381
C          11.47487        -4.78667        -3.43788
C           8.77439        -4.16845        -2.98643
N           5.78010        -2.89153        -2.05384
C           2.90793        -1.59302        -1.10548
C          -0.39179         0.03904         0.08655
H           2.85950         0.78730         0.63302
H           1.97610        -1.77454        -1.23761
H           7.55665        -1.46991        -1.01546
H           6.94089        -4.10119        -2.93711
H           9.71549        -2.47560        -1.74994
H           9.14150        -5.16908        -3.71687
H          11.90836        -3.40485        -2.42858
H          10.98044        -5.97466        -4.30526
H          13.78416        -4.55069        -3.26542
H          11.20513        -5.23806        -3.76766
H           5.12051        -2.56880        -1.81810

