%chk=C1dCCdCCdCC2dNCdNC2dCCdCCdC1.chk
%NProcShared=20
# opt freq b3lyp/6-31g(2df,p)

Title Card Required 

0  1
C           2.77155        -0.51732         0.96053
C           2.76005        -0.01628        -0.29459
C           3.27260        -1.13641        -1.05453
C           4.61677        -1.25069        -1.06890
C           5.25854        -2.43057        -1.47442
C           6.57309        -2.32636        -1.73990
C           7.31067        -3.52430        -1.88870
N           7.26045        -4.30298        -2.95521
C           8.25032        -5.20280        -2.70110
N           8.92197        -5.07185        -1.57503
C           8.32184        -3.99324        -0.92166
C           8.50146        -3.48497         0.35486
C           7.49202        -2.41001         0.88155
C           6.77104        -1.89204         1.93150
C           5.44911        -0.82023         2.03226
C           4.10485        -0.39070         1.76974
H           1.80427        -1.04796         1.10563
H           3.35912         0.88751        -0.46558
H           2.64750        -1.99871        -1.24465
H           5.21402        -0.45509        -0.61315
H           4.72606        -3.36765        -1.53290
H           7.11426        -1.39452        -1.62989
H           8.41809        -5.96743        -3.48871
H           9.32543        -3.95970         0.91275
H           7.39537        -1.69912         0.10461
H           7.40715        -1.83614         2.83954
H           5.92645        -0.05557         2.66497
H           3.81657         0.56447         2.25152

