%chk=C1dCCdC2CdCCdNC3dCC4dCqN4rCqCdC1rqC2rNdC3.chk
%NProcShared=20
# opt freq b3lyp/6-31g(2df,p)

Title Card Required 

0  1
C           3.03768         1.39902         0.72931
C           3.18707         0.08160         0.41054
C           3.89932         0.08312         1.65122
C           5.28628         0.46884         1.70687
C           5.43838         0.52709         3.07742
C           6.70892         0.07418         3.13469
C           7.45420         0.91278         3.99342
N           8.73878         0.94311         3.61284
C           9.64272         1.69631         4.33039
C           9.24236         1.73000         5.61996
C           9.15621         2.99483         6.12282
C           7.95900         3.35437         5.27448
N           8.30411         3.20141         7.08485
C           7.60316         2.90185         3.37486
C           5.78348         3.21309         2.37771
C           4.41503         2.53718         1.57101
C           6.71318         1.77521         1.68132
N           9.04837         3.91898         3.35274
C          10.09854         3.10173         3.72959
H           1.76083         1.15859         0.84857
H           2.88483        -0.37457        -0.62495
H           2.99176         0.68449         2.43869
H           4.81715         1.41901         3.46617
H           7.44480        -0.07538         2.17631
H           6.72526         1.79241         4.56188
H           8.18548         1.36864         5.93558
H           8.28527         2.41801         7.94758
H           6.63072         3.36060         3.37233
H           3.71368         2.64759         0.61589
H           6.85816         0.77339         1.03215
H           6.59499         1.93169         0.50177
H          10.69127         3.31635         2.81921

