%chk=C1dCCdC2CdC2CdCCdCNCCNNCdC1.chk
%NProcShared=20
# opt freq b3lyp/6-31g(2df,p)

Title Card Required 

0  1
C           1.70169        -1.87020        -2.30758
C           1.88754        -0.75726        -1.00868
C           2.63209         0.35917         0.40855
C           3.95023         0.63392         0.74807
C           5.04274         1.15086         1.38425
C           5.27484         0.25823         0.28957
C           4.84957        -0.74953        -0.94326
C           5.28838        -1.55173        -1.92482
C           4.52394        -2.35609        -2.91027
C           5.08809        -3.11289        -3.83369
N           4.55909        -3.88531        -4.77117
C           5.31877        -4.63117        -5.70235
C           4.37566        -5.25969        -6.49990
N           4.26913        -6.10460        -7.52264
N           2.65043        -5.56951        -6.76237
C           1.96713        -4.20386        -5.43296
C           1.85566        -3.33106        -3.89386
H           0.71135        -1.39073        -1.71875
H           2.83452        -0.53658        -0.64806
H           2.24216         1.09268         1.30879
H           5.38099         1.87765         2.27242
H           3.90122        -1.04341        -1.30430
H           6.31897        -1.62788        -2.01781
H           3.47015        -2.38328        -2.94837
H           6.13804        -3.17303        -3.90887
H           3.56580        -3.89648        -4.78854
H           5.78812        -5.49366        -5.26900
H           5.79338        -4.03552        -6.45425
H           3.92495        -4.38871        -7.18005
H           3.95324        -6.12843        -5.74452
H           4.99566        -6.89194        -7.23868
H           2.29745        -6.23902        -7.68537
H           1.78710        -5.25098        -6.20875
H           0.78006        -2.84738        -3.55250

