%chk=C1dCCdC2CdC2SNCNd[SH]SCdC1.chk
%NProcShared=20
# opt freq b3lyp/6-31g(2df,p)

Title Card Required 

0  1
C           2.00604         2.04571        -0.74050
C           2.21451         0.72264        -0.23135
C           2.85664        -0.72229         0.31105
C           4.20078        -1.00187         0.41960
C           5.24178        -1.72392         0.67546
C           5.60943        -0.52587         0.25744
S           5.24630         1.04843        -0.22746
N           5.94170         2.37483        -0.75573
C           5.10454         3.55228        -1.03334
N           6.06696         4.60403        -1.22046
S           5.60724         6.03028        -1.05166
S           4.48768         5.85743        -2.68851
C           2.93791         5.02918        -1.92351
C           2.32830         3.74448        -1.33954
H           0.91430         1.97646        -0.62629
H           3.21810         0.93701        -0.18964
H           2.28905        -1.63047         0.63039
H           5.55587        -2.72427         1.00440
H           6.32104         2.27284        -1.68478
H           4.40782         3.81576        -0.22561
H           4.54473         3.35645        -1.98272
H           4.65730         6.81680        -0.51490
H           2.52041         6.07551        -2.02527
H           1.27991         3.98331        -1.15242

