%chk=C1dCCdC2CdCCdCqCdCNSCdCNdC1rCdC2.chk
%NProcShared=20
# opt freq b3lyp/6-31g(2df,p)

Title Card Required 

0  1
C           3.90397         0.21099        -0.68570
C           2.52004        -0.11641         0.30202
C           3.11388        -0.37935         1.43669
C           4.38995        -0.38240         1.46367
C           5.05687        -0.63298         2.61233
C           6.34759        -0.69329         2.88776
C           7.44488        -0.52586         2.16149
C           7.39278        -0.27745         1.01946
C           8.25363        -0.11519         0.25178
C           9.40276        -0.26932         0.95308
N          10.28380        -0.11554         0.31836
S          12.20693        -0.32813         1.23519
C          13.13085         0.03393        -0.49708
C          11.29858         0.11262        -0.67097
N           8.82094         0.23240        -0.98340
C           6.54618         0.32197        -1.10874
C           6.44008        -0.19091         0.41607
C           5.20664        -0.18439         0.48833
H           2.11386         0.00321        -0.00752
H           2.83016        -0.02585        -0.79584
H           2.49363        -0.54374         2.20806
H           4.38575        -0.80497         3.39242
H           6.65744        -0.91238         3.85985
H           8.41268        -0.57868         2.44380
H           8.07022         0.33211        -1.71647
H           9.90005        -0.44274         1.76542
H          10.41040         0.24516        -1.38155
H          13.94769         0.22922        -1.34100
H          13.02634        -0.03850        -0.10077
H           4.76080         0.31588        -1.66016
H           7.54083        -0.02810        -0.87989
H           5.12739        -0.05954        -0.44969

