%chk=C[N][N]C1dCCdCqNdCNNNNdNNCrCdCCdC1.chk
%NProcShared=20
# opt freq b3lyp/6-31g(2df,p)

Title Card Required 

0  1
C           0.97534         0.02133         0.05906
N           2.42607         0.03033         0.14293
N           2.96186        -1.33816         0.26797
C           4.29585        -1.40415         0.58471
C           5.04143        -0.43510         1.14621
C           6.35617        -0.16288         1.63831
C           7.55159        -0.75610         1.81754
N           8.64083        -0.13704         2.49132
C           8.52650         1.03953         3.04312
N           9.50668         1.70274         3.78457
N           9.29888         3.03895         4.23981
N          10.37345         3.55508         4.98986
N          10.34271         4.83139         5.50181
N          11.44408         5.11179         6.04331
N          11.42346         6.35934         6.60169
C          12.57341         6.90212         7.29078
C           7.91324        -2.08526         1.33436
C           7.29756        -3.06356         0.65245
C           5.97916        -3.31856         0.14805
C           4.79872        -2.68990         0.15573
H           0.60231         0.98262        -0.31553
H           0.51775        -0.12295         1.04434
H           0.57041        -0.74548        -0.61198
H           4.41971         0.44941         1.32045
H           6.27832         0.85925         1.97650
H           7.60951         1.64556         3.00695
H          10.42232         1.27462         3.79778
H           8.47456         3.05435         4.85528
H          11.28302         3.10966         4.98813
H          10.55654         6.88049         6.51080
H          13.41028         6.19915         7.28107
H          12.30463         7.13132         8.32818
H          12.87968         7.83712         6.80843
H           8.95182        -2.32354         1.56797
H           7.93479        -3.91763         0.40873
H           5.92131        -4.28054        -0.36653
H           3.99504        -3.25822        -0.32735

