%chk=CC12CdCCdC3NdC3NdC1CdCCC2.chk
%NProcShared=20
# opt freq b3lyp/6-31g(2df,p)

Title Card Required 

0  1
C           1.29616        -0.23361         0.12354
C           2.83265         0.03316         0.28479
C           3.17629         0.37378         1.71150
C           4.39819         0.92681         1.84158
C           5.34124         0.46060         2.83530
C           6.29468        -0.23270         2.18175
N           6.62314        -1.58221         2.30329
C           5.73457        -1.30852         1.47582
N           4.99535        -1.65998         0.39488
C           3.92053        -1.10506        -0.14643
C           3.96249        -1.35548        -1.60782
C           4.14729        -0.21687        -2.29481
C           3.90706         1.17845        -1.79571
C           3.02010         1.32897        -0.57219
H           0.91382        -1.17713         0.51877
H           0.96488        -0.16686        -0.92726
H           0.73446         0.57235         0.63144
H           2.63074        -0.10562         2.52050
H           4.92407         1.15922         0.89861
H           4.83769        -0.02373         3.66699
H           4.26106        -2.32688        -1.98714
H           4.55954        -0.27729        -3.29766
H           3.43168         1.74609        -2.60162
H           4.86474         1.67162        -1.58968
H           2.05407         1.75802        -0.87501
H           3.41145         2.16182         0.02550

