%chk=CC1C2dCCdCCdCc3ccccqNNrc3NqCrN21.chk
%NProcShared=20
# opt freq b3lyp/6-31g(2df,p)

Title Card Required 

0  1
C           0.95619        -0.07501         0.17429
C           2.60147        -0.67492         0.58955
C           4.10702        -1.20962        -0.66582
C           4.17642        -2.18029        -1.61919
C           3.87226        -3.38062        -0.97128
C           4.14090        -4.51188        -1.54819
C           4.02604        -5.70815        -0.77159
C           3.93448        -6.75003        -1.61490
C           2.89543        -6.37905        -0.79098
C           3.67465        -8.23128        -0.49391
C           3.57308        -9.46110         0.34347
C           2.36257        -8.54941         0.53588
C           1.71930        -6.59817         0.15362
N           0.69521        -8.34336         0.26098
N          -0.67081        -8.85661        -0.13803
C           1.95742        -4.65401        -0.56146
N           2.03417        -2.29606        -0.75683
C           2.43364        -0.12431        -1.22605
N           2.98941        -0.79047        -0.65147
H           0.57863        -0.62091         0.96288
H           0.63126        -0.44183        -0.83533
H           0.72280         1.01040         0.19558
H           2.81833         0.05347         1.31438
H           4.46548        -1.96692        -2.63112
H           3.21159        -3.31172         0.07361
H           4.42164        -4.47613        -2.55199
H           3.36291        -5.51495         0.51365
H           4.35098        -6.90011        -2.55589
H           4.77908        -8.97960        -1.03770
H           4.41484       -10.28483         1.06418
H           2.10065       -10.03188         0.90288
H           0.59080        -9.67876         0.68843
H          -0.57214        -8.13738        -0.76656
H          -1.36245        -8.71693         0.61692
H           3.26108         1.33857        -1.40679
H           3.16096         1.19602        -0.40420
H           2.18365         1.51247        -1.00372

