%chk=CC1CCdCCdCCdC2c3ccccccc1cc32.chk
%NProcShared=20
# opt freq b3lyp/6-31g(2df,p)

Title Card Required 

0  1
C           3.40786         0.54905         1.53073
C           5.69426         1.06468         3.09741
C           3.69820         0.72172         2.05521
C           5.61696         0.68593         1.94652
C           6.98961         1.06207         3.08832
C           7.32883         0.72657         2.06992
C           7.54788         1.14485         3.33982
C           8.95893         1.11936         3.26249
C           9.96232         1.33838         3.92738
C          10.46040         1.59458         4.77769
C          11.64564         1.77027         5.10297
C          13.06294         1.79962         5.38997
C          13.85873         2.20643         6.56374
C          15.19169         2.28069         6.78826
C          13.11331         2.35154         7.00419
C          10.91666         2.05501         6.10313
C           8.34517         1.62224         4.78968
C           7.58011         2.00562         5.95307
C           9.19774         1.91600         5.68115
H           1.94629         0.11186         0.20365
H           1.62258         0.85652         0.67484
H           1.62259        -0.20701         1.02515
H           4.37792         0.61116         1.71956
H           2.56143        -0.31625         2.32006
H           2.56142         1.71393         1.65137
H           5.09743         0.21278         0.51004
H           4.92996         1.27491         3.73457
H           7.25374         0.46834         1.28592
H           6.78658         1.47172         4.33221
H           9.43431         0.89588         2.58397
H          10.27502         2.28391         6.79715
H          13.81817         1.65763         4.89549
H          12.69525         2.70751         8.08418
H          15.97198         2.06456         6.13209
H          14.67133         2.78354         8.31502
H          12.63621         2.36393         7.04088
H           6.73599         1.83606         5.43835

