%chk=Cc1cccc2c1-cdc-c1ccccn-2occc1.chk
%NProcShared=20
# opt freq b3lyp/6-31g(2df,p)

Title Card Required 

0  1
C           1.05575        -0.28233        -0.02204
C           2.64074        -1.16480        -0.15658
C           3.25871         0.61187        -0.07831
C           4.55274         0.89121         0.31550
C           5.28275        -0.65110         0.19236
C           4.91994        -2.53111        -0.03447
C           3.06367        -3.05078        -0.17096
C           2.51045        -5.05797        -0.36626
C           2.59808        -6.67932        -0.54683
C           3.93321        -8.12519        -0.61943
C           5.34890        -8.87618        -1.33649
C           5.44615        -9.92781        -0.64805
C           6.59784        -8.25210        -0.26732
C           6.76900        -6.17003        -0.16789
N           6.21349        -4.15165        -0.10620
O           4.79391        -3.86984        -0.13891
C           4.80568        -4.95508        -0.35158
C           4.69798        -6.11741        -0.43391
C           4.88978        -7.28837        -0.68475
H           0.76066         0.86241        -0.12905
H           0.65582        -0.53199         0.94569
H           0.61039        -0.72552        -0.86653
H           2.79561         1.75951        -0.51195
H           4.99181         1.90047         0.73991
H           6.34302        -0.18061         0.23721
H           6.87656        -9.46232        -1.25696
H           4.13697       -10.73484        -0.90862
H           6.14407        -9.86327        -0.34116
H           7.25707        -4.88409        -0.22437
H           5.57150        -5.36383        -0.51697
H           3.87640        -5.98425        -0.36515
H           5.85094        -7.13684        -1.14554

