%chk=CC1CdNCdCCdCCdCCdCOCqSCSrC1.chk
%NProcShared=20
# opt freq b3lyp/6-31g(2df,p)

Title Card Required 

0  1
C           3.03531        -0.39680         1.03060
C           5.22503        -0.95434         2.12948
C           3.33012        -1.21315         1.48368
N           4.39659        -1.90803         1.32555
C           4.72169        -2.70299         2.33429
C           6.04721        -2.89704         2.29190
C           6.58623        -3.64495         3.45352
C           7.91390        -3.72255         3.65785
C           8.21638        -4.68719         4.59788
C           9.44712        -5.16528         4.44618
C           9.86888        -5.99038         5.60277
C          11.11236        -6.01931         5.13347
O          10.33272        -4.53815         6.01158
C           9.33952        -3.03701         4.99216
S          11.55525        -4.57680         6.61909
C          13.62779        -6.45326         7.77099
S          14.84072        -8.26226         9.40189
C           7.34449        -1.88486         3.56743
H           1.56152        -0.91497         0.22958
H           1.78944         0.25488        -0.03204
H           1.40041         0.09736         1.14799
H           4.43923        -0.53411         0.61375
H           2.35475        -1.68433         1.87773
H           4.02177        -2.73833         3.06848
H           6.83171        -2.04215         1.65186
H           5.92378        -3.86318         4.23226
H           8.72046        -2.98344         3.12756
H           7.72819        -4.97413         5.48531
H          10.50483        -4.31195         4.05631
H           9.58931        -6.15961         6.67459
H          12.35183        -5.29956         5.06405
H          10.80657        -3.60719         5.34918
H          15.11040        -6.87056         8.66326
H          14.95398        -7.66778         7.82139
H          15.30857        -8.88119        11.19302
H           6.71388        -0.82132         2.49517
H           6.29977        -0.77281         3.07403

