%chk=CC1dCCdCC2dCC3dCCdCCdCS3dNOCdCC2dC1.chk
%NProcShared=20
# opt freq b3lyp/6-31g(2df,p)

Title Card Required 

0  1
C           0.92995         0.10175        -0.07739
C           2.43198         0.04733        -0.14207
C           3.02150        -1.16171        -0.14251
C           4.40747        -1.52443        -0.06125
C           5.46684        -0.72191        -0.09905
C           5.45566         0.72163        -0.22359
C           6.61049         1.41429        -0.41807
C           7.92281         0.80850        -0.27158
C           8.28804        -0.05321        -1.20561
C           9.40149        -0.93830        -1.34874
C          10.43206        -1.13629        -0.55112
C          10.75515        -0.56358         0.73270
C          10.13350         0.29865         1.54486
S           8.78140         1.35862         1.16972
N           7.73925         0.87369         2.17989
O           6.91060         2.04567         2.52955
C           5.55126         1.76047         2.43580
C           4.73317         2.37335         1.53501
C           4.36796         1.53330         0.34652
C           3.06651         1.34909         0.06747
H           0.48826        -0.90015        -0.05425
H           0.53289         0.62924        -0.94751
H           0.60095         0.61291         0.83591
H           2.38659        -2.04422        -0.11653
H           4.62060        -2.58108         0.07252
H           6.43250        -1.19092         0.06458
H           6.66043         2.49731        -0.29301
H           7.56268        -0.19350        -2.01063
H           9.31419        -1.55598        -2.24348
H          11.15124        -1.88481        -0.88629
H          11.71407        -0.93617         1.09676
H          10.68077         0.52614         2.46123
H           5.22161         1.05535         3.18807
H           5.08108         3.30781         1.10347
H           2.37575         2.13932         0.35505

