%chk=CC1dCqSNrNdCCdC2CdC2CqNrNNS1.chk
%NProcShared=20
# opt freq b3lyp/6-31g(2df,p)

Title Card Required 

0  1
C           1.32377        -0.13202        -0.30639
C           2.71121         0.33297        -1.11241
C           3.25525         1.43940        -0.57249
S           2.07652         2.91569        -1.03013
N           0.67540         2.13893        -1.66880
N           4.66326         1.44143        -0.26673
C           5.49072         1.31546        -1.26333
C           6.98974         1.33703        -1.39525
C           7.50416         2.10575        -2.30691
C           8.53461         2.65601        -2.97960
C           7.33540         3.12305        -3.43622
C           5.80255         3.18381        -3.41834
N           5.37562         3.90985        -2.26946
N           4.61899         3.16154        -4.24376
N           3.29718         2.28106        -3.57564
S           3.07112         0.48439        -3.13789
H           0.40207         0.22683        -0.74293
H           1.24308         0.27463         0.74987
H           1.12209        -1.20305        -0.17744
H           0.14861         2.45943        -2.48969
H          -0.02419         2.06902        -0.93333
H           5.04185         1.39260        -2.23021
H           7.61363         0.73856        -0.74781
H           9.58602         2.58353        -2.94380
H           5.76821         2.11447        -3.61928
H           5.34858         4.91019        -2.24340
H           5.14533         3.42717        -1.41687
H           4.74896         3.25649        -5.24756
H           2.47828         2.57404        -4.10789

