%chk=CC1dCCdCCdCCdC2OCdCCdC2C2dC1C2O.chk
%NProcShared=20
# opt freq b3lyp/6-31g(2df,p)

Title Card Required 

0  1
C           2.17975         0.50680         1.31442
C           3.76662         1.27890         2.33697
C           3.74859         1.41643         0.98559
C           4.90469         1.08378         0.27520
C           5.76156         2.01290         0.64029
C           7.04828         1.55889         1.08860
C           7.93913         2.32942         1.66918
C           9.22589         2.29171         2.24660
C           9.57255         3.30418         3.00682
O          11.01119         3.52229         2.94686
C          11.68756         4.54583         3.51829
C          10.94870         5.47733         4.10921
C           9.23099         5.23555         4.17115
C           8.36611         4.04683         3.67671
C           6.67932         3.08171         3.73103
C           5.28384         2.18641         3.14135
C           5.69211         3.64916         2.85621
O           4.73175         4.53803         3.38443
H           2.18790        -0.13015         0.20984
H           1.45420         1.21954         0.72208
H           1.42718        -0.22922         1.72275
H           2.98315         2.21689         0.86475
H           5.21011         0.04782         0.12529
H           5.17491         2.87305         1.03204
H           7.45727         0.69810         0.62761
H           8.47877         2.52511         0.76446
H          10.01406         1.79958         1.71528
H          12.79966         4.47361         3.43865
H          11.58217         6.27717         4.58986
H           9.07539         6.18996         4.72010
H           6.35472         4.11005         2.08771
H           4.64654         4.15845         4.27713

