%chk=CC1dCCdCCdC[N]CNqCrSCNNCdC1.chk
%NProcShared=20
# opt freq b3lyp/6-31g(2df,p)

Title Card Required 

0  2
C           3.32442         0.47497         0.24525
C           5.86508         0.93677         0.67100
C           3.90383         1.08758         0.58603
C           5.09369         1.33102         0.69308
C           5.53406         2.53509         1.38273
C           7.01475         2.54355         1.24667
C           7.64896         3.35562         1.95006
N           8.88829         3.57162         2.26295
C           9.62095         4.47879         2.60354
N          10.90687         4.44512         2.40564
C          11.55838         4.04512         0.68016
S          11.69240         5.54425         3.28833
C          13.06766         4.99155         2.81351
N          13.99804         5.34168         3.26408
N          12.55343         3.64039         2.37833
C          10.46196         2.47389         1.69972
C           8.42240         1.53010         1.16022
H           1.50290         0.82643         0.40361
H           1.67034        -0.36281         0.35770
H           1.68809         0.24645        -0.62573
H           2.74425         1.87254         1.02748
H           5.33188        -0.06503        -0.19389
H           4.74495         2.97742         1.70861
H           8.61009         2.86684         1.01739
H           6.98987         3.92875         2.29550
H           9.50549         4.20509         3.55674
H           9.48067         5.18516         1.94875
H          11.07412         3.15815         0.22351
H          12.64959         3.74868         0.66841
H          11.31117         4.93479         0.34686
H          14.07097         5.05402         1.64935
H          14.04509         3.88516         3.60150
H          14.31538         5.96841         4.51106
H          14.21948         4.19468         2.50967
H          12.10860         3.11742         2.04130
H           7.33700         0.69037         0.38699

