%chk=CC1dCdC2CdC2CdCdC2NdCCdCNCC2O1.chk
%NProcShared=20
# opt freq b3lyp/6-31g(2df,p)

Title Card Required 

0  1
C           2.26442         0.11082        -0.56949
C           4.15382        -0.10110        -0.46914
C           4.04015        -0.91507         0.53837
C           3.63848        -2.07162         0.92751
C           3.95737        -2.90365         1.92890
C           4.92345        -2.99223         1.03923
C           5.48267        -2.71657        -0.20302
C           6.65681        -2.91764        -0.67988
C           7.53326        -2.60001        -1.50093
N           8.32372        -3.70911        -1.33109
C           9.44046        -4.26327        -1.04485
C          10.82480        -3.84820        -0.86007
C          11.01210        -2.61087        -0.39673
N          10.06949        -1.57909        -0.14371
C           9.28150        -0.73825        -1.23849
C           7.44668        -0.98208        -1.54655
O           5.72585        -0.17509        -1.34132
H           1.72692        -0.74034         0.03107
H           1.57047         0.03926        -1.43921
H           1.78660         0.86923         0.14129
H           3.47649        -3.17299         2.81491
H           4.99784        -2.14563        -0.98234
H           9.31693        -5.32898        -0.72117
H          11.60761        -4.61436        -0.98021
H          12.04064        -2.39994        -0.07266
H           9.47248        -1.82336         0.64395
H           9.87071        -1.07252        -2.14075
H           9.62877         0.29463        -1.12890
H           7.51272        -0.68484        -2.63022

