%chk=CC1dCCdCCdCCdC2CdCdNNCdC12.chk
%NProcShared=20
# opt freq b3lyp/6-31g(2df,p)

Title Card Required 

0  1
C           3.68528         0.39510         1.79526
C           5.62005         0.44259         3.27716
C           4.31030        -0.11406         2.16232
C           5.27738        -0.49766         1.12287
C           5.94950        -1.15673         2.07357
C           7.20305        -0.37894         2.04179
C           7.73229        -0.91194         3.07356
C           9.12026        -0.61008         3.23936
C           9.52938        -0.70289         4.44024
C          11.35484        -0.78039         4.49993
C          12.17402        -1.20261         5.48875
N          12.59251        -1.22415         6.57180
N          11.55865         0.15375         6.45666
C           9.53786         0.14293         5.64857
C           7.81275         0.31336         4.52587
H           2.53672         0.21998         0.44520
H           2.07288         0.63720         1.16700
H           2.27024        -0.40873         1.04380
H           2.77977        -0.54893         2.50309
H           5.30806         0.01977         0.16369
H           5.02334        -1.15670         3.26357
H           7.59186        -0.12613         1.15290
H           6.88651        -0.98033         4.11877
H           9.71596        -0.39055         2.44749
H          11.88534        -0.57085         3.62104
H          13.06898         0.56467         6.69394
H          10.82380        -0.08841         6.76310

