%chk=CC1dNS2dCNdCCdC2[SH]2CC2SCdC1.chk
%NProcShared=20
# opt freq b3lyp/6-31g(2df,p)

Title Card Required 

0  1
C           1.12340         0.38197         0.12938
C           2.49765         0.64000         0.66284
N           3.48329         1.40009         0.20376
S           4.98859         1.23211         1.02036
C           5.73707         2.24388        -0.19052
N           6.42471         1.72544        -1.21131
C           6.61608         0.38315        -1.36939
C           6.18145        -0.71824        -0.59878
C           5.36740        -0.56982         0.53807
S           5.29129        -2.11721         1.70808
C           3.65511        -2.95050         1.81193
C           4.06091        -2.36691         3.12736
S           2.99203        -1.29283         3.97629
C           3.19778         0.01680         2.92805
C           2.70110        -0.29398         1.69159
H           0.40066         0.77725         0.85226
H           0.96211        -0.71950         0.16475
H           0.93765         0.68431        -0.88950
H           5.51416         3.30589        -0.18501
H           7.22184         0.19884        -2.25882
H           6.52236        -1.69859        -0.92118
H           5.96631        -3.20989         1.27045
H           3.49771        -4.03040         1.82350
H           2.74793        -2.62671         1.29228
H           4.58701        -2.91261         3.89418
H           4.21053         0.36001         3.07070
H           3.26305        -0.92166         1.00804

