%chk=CC1dN[SH]2NdCCqdOrNNC2dCCdCC2dCC2dC1.chk
%NProcShared=20
# opt freq b3lyp/6-31g(2df,p)

Title Card Required 

0  1
C           1.59449        -0.47278         0.11311
C           3.30504        -0.90165         0.82301
N           3.61454         0.31623         1.18508
S           5.17536         0.42052         1.29169
N           5.46726         1.93584         1.44206
C           5.23206         2.68803         0.42182
C           4.74509         2.43227        -1.01265
O           5.25555         3.14823        -1.87103
N           3.98763         1.33147        -1.43420
N           4.76103         0.19724        -1.52846
C           5.73933         0.05726        -0.59951
C           6.86319        -0.63846        -0.78353
C           7.85642        -0.38255         0.21130
C           8.59463        -1.39619         0.57010
C           7.64585        -1.98803         1.55352
C           7.80294        -3.21356         1.67915
C           6.25639        -2.38076         1.54134
C           4.80788        -2.11718         0.80209
H           0.94670        -0.22153         0.98954
H           0.97118        -1.10624        -0.53417
H           1.35425         0.57700        -0.35831
H           5.45893        -0.46846         2.28506
H           5.56832         3.70113         0.59841
H           3.05587         1.17321        -1.07322
H           4.55964        -0.58000        -2.15555
H           7.00143        -1.40184        -1.56390
H           7.39865         0.08043         1.09554
H           8.99399        -2.13311        -0.15668
H           9.06266        -3.15474         1.66704
H           4.76515        -1.84609        -0.26152

