%chk=CC1dCCdCCdCCdCCdCc2ccccc21.chk
%NProcShared=20
# opt freq b3lyp/6-31g(2df,p)

Title Card Required 

0  1
C           4.71843        -0.38521        -1.95902
C           7.09548        -0.83729        -2.90713
C           5.18720        -0.88557        -2.31513
C           5.57857        -1.15522        -0.59333
C           5.56397        -2.17110        -1.63079
C           7.22364        -2.28280        -1.51790
C           7.67156        -2.66484        -2.80359
C           8.96917        -2.76399        -2.45214
C           9.53984        -3.52145        -3.51217
C          11.05639        -3.51211        -3.38968
C          11.61320        -3.95060        -4.61460
C          11.37022        -2.49772        -3.98015
C          13.31638        -3.33464        -3.62909
C          15.13212        -3.43283        -3.66340
C          13.92776        -2.46619        -4.43930
C          11.78029        -1.78107        -4.25737
C           9.47713        -1.40145        -3.71006
H           3.32844        -0.17399        -0.83064
H           3.14457        -0.77217        -1.08242
H           2.99667        -0.06866        -1.54753
H           3.54267        -1.40933        -2.10185
H           5.24745        -0.13530        -0.18046
H           4.88779        -2.33432        -2.86231
H           7.53151        -1.02752        -1.12125
H           7.03635        -2.78839        -3.67891
H           9.57231        -1.71830        -2.00929
H           9.19761        -3.49925        -4.62250
H          11.72734        -2.34670        -2.53150
H          11.37115        -4.21525        -5.62230
H          13.65652        -4.09544        -2.69763
H          16.00885        -3.36700        -2.66977
H          15.67464        -2.79538        -4.65048
H          13.07489        -2.51031        -5.18008

