%chk=CC1dC[C]2CdCCdCCqdN1rCqOrC2.chk
%NProcShared=20
# opt freq b3lyp/6-31g(2df,p)

Title Card Required 

0  2
C           1.87282         0.20330         0.50730
C           3.33064         0.85538         0.19935
C           3.17595         1.24410        -1.03185
C           4.25588         0.90676        -1.94634
C           4.67882        -0.54938        -1.85129
C           5.82233        -1.19950        -1.52869
C           7.09937        -0.64920        -1.22275
C           7.21735         0.20547        -0.18223
C           5.85226         0.99311         0.10497
N           4.71260         0.46386         0.66931
C           6.05277         2.24483        -0.85858
O           6.46761         3.51493        -0.39892
C           4.98209         2.23485        -1.91281
H           1.10957         0.77521        -0.08280
H           1.41503         0.23608         1.49595
H           1.72304        -0.79729         0.04718
H           2.24426         1.60169        -1.49848
H           3.82605        -1.19056        -1.58785
H           5.74807        -2.21369        -1.11742
H           7.92907        -0.97653        -1.85978
H           8.17212         0.75352        -0.18839
H           6.92202         2.01442        -1.49450
H           5.90200         3.81259         0.32690
H           5.32533         2.49770        -2.91158
H           4.32290         3.07929        -1.62959

