%chk=CC1dCCdC2[C]CO[C]qNrSCdC2CdC1.chk
%NProcShared=20
# opt freq b3lyp/6-31g(2df,p)

Title Card Required 

0  2
C           0.94120         0.14031         0.06998
C           2.45582         0.04129         0.03716
C           2.80830        -1.21421        -0.03222
C           4.12325        -1.70295        -0.00914
C           5.27692        -1.15056         0.06884
C           6.08186        -2.08093         0.67332
C           6.29248        -3.45663         0.58351
O           7.62708        -3.70184         0.86860
C           8.14673        -3.42312        -0.37083
N           7.84269        -4.57196        -1.35500
S           8.45722        -1.53755        -0.83273
C           7.26850         0.03628        -0.17322
C           5.86516         0.13440        -0.07833
C           4.80130         1.28150         0.04720
C           3.41135         1.18868         0.06966
H           0.47581        -0.86809         0.07137
H           0.55671         0.61556        -0.83183
H           0.56990         0.61153         0.97939
H           2.10681        -2.04775         0.01964
H           4.04213        -2.78399         0.10261
H           5.95021        -3.64154        -0.46185
H           5.58574        -3.91976         1.24774
H           6.82050        -4.73614        -1.42107
H           7.95804        -5.49478        -0.87433
H           7.91071         0.92223        -0.06840
H           5.16141         2.31808         0.07563
H           2.82129         2.11272         0.10344

