%chk=CC1dCCCCdCC2dCc3ccccqOrc3C2dC1.chk
%NProcShared=20
# opt freq b3lyp/6-31g(2df,p)

Title Card Required 

0  1
C           2.15934         0.01709         0.01209
C           4.23182         0.30078        -0.08814
C           3.41274         0.69758        -1.18748
C           4.65564         0.84964        -1.57305
C           5.05812         1.40971        -2.77553
C           6.39357         0.96024        -2.89884
C           7.26597         1.66448        -3.56220
C           8.37566         1.33166        -2.80359
C           9.40666         0.51619        -3.21274
C          10.57454         1.04670        -2.49474
C          12.20168         0.49069        -2.91779
C          13.44214         1.14746        -3.07886
C          13.06379         2.42405        -3.21960
C          11.37770         2.82463        -2.73317
O          11.81253         4.27858        -3.65490
C           9.72195         2.21810        -1.98435
C           8.02319         1.33592        -1.07913
C           6.28212         0.74574        -0.40129
H           1.24891         0.44140        -0.86502
H           1.31368         0.46802         0.81879
H           1.36299        -1.02832        -0.05829
H           2.57143         0.90580        -1.86374
H           5.00480        -0.39438        -1.56582
H           4.78567         1.84219        -0.65814
H           4.88066         2.44509        -2.51652
H           4.64026         0.75950        -3.48190
H           6.76267         0.12598        -2.26124
H           6.97263         2.46650        -4.19600
H           9.42666        -0.46070        -2.77746
H          12.36000        -0.58242        -2.74821
H          14.46758         0.72083        -3.05067
H          14.01734         3.05157        -3.57200
H          12.81494         4.56284        -3.92481
H           5.85839        -0.03978         0.47206

