%chk=CC1dC2NdCNdC2CdCNqCdOrCC1C.chk
%NProcShared=20
# opt freq b3lyp/6-31g(2df,p)

Title Card Required 

0  1
C           0.48845        -0.12568         0.44924
C           2.37222         0.17685         0.96541
C           3.37045         1.13760         0.66279
N           4.75326         1.16139         0.61192
C           5.05050         2.43059         0.72204
N           4.02614         3.34523         0.77035
C           3.03436         2.59535         0.46079
C           1.81839         3.06003        -0.18711
C           1.08520         4.03536         0.26398
N          -0.43912         3.50404         0.29257
C          -1.74679         2.82281         0.40948
O          -1.93780         1.63461         0.35576
C           0.20158         2.22223         1.30549
C           1.39406         0.74367         0.27521
C           1.91057        -1.22516        -0.08184
H          -0.41753         0.49044         0.34098
H           0.19438        -0.95260         1.05900
H           0.40441        -0.34536        -0.85472
H           6.06171         2.84354         0.72392
H           1.05097         2.39538        -0.60783
H           1.46994         4.78383         1.05209
H          -2.66082         3.47361         0.70289
H           0.31728         3.00346         2.32514
H          -0.17952         3.47356         1.35973
H           1.83229         0.92366        -0.72172
H           0.99907        -1.89857        -0.30189
H           2.35856        -2.05565         0.62965
H           2.36177        -1.56465        -1.06711

