%chk=CC1dCCdCCqdNNrCCC2dCNdCCCC2dC1.chk
%NProcShared=20
# opt freq b3lyp/6-31g(2df,p)

Title Card Required 

0  1
C           2.12942         0.51776        -0.17063
C           4.04560         1.55953        -0.38209
C           3.40565         1.41262         0.81797
C           4.57640         1.08587         1.42321
C           5.31521         2.13498         1.78380
C           6.90443         1.90505         1.56602
N           7.61241         1.04115         0.79236
N           7.09776        -0.01685         0.17053
C           7.62061         3.17540         2.08110
C           9.00467         2.80421         1.42253
C           9.03931         4.17760         1.38549
C           9.90457         4.18535         2.82127
N          11.08130         4.78824         3.65397
C          11.40140         5.98631         3.42740
C          10.22869         6.51807         2.30231
C           8.64274         5.53931         1.13320
C           7.42560         3.92159         0.23985
C           5.87098         2.66765        -0.27751
H           1.03208         1.09241         0.40116
H           1.27786        -0.51255         0.56057
H           1.08977         0.08534        -0.98874
H           2.60886         2.14940         0.96288
H           4.91157         0.10150         1.01766
H           4.87782         3.17911         1.49041
H           7.55136        -0.77995        -0.30668
H           6.12959        -0.13296         0.01655
H           7.36950         3.59817         3.02447
H           7.09551         4.45052         1.75492
H           9.45205         2.84599         0.38233
H           9.57114         2.18325         2.08578
H           9.71736         3.50316         3.66496
H          12.35649         6.58043         3.99464
H          11.30007         7.42993         2.13116
H          10.12094         7.42870         3.36544
H           9.13632         6.69808         0.71920
H           8.28863         6.53520         1.90469
H           5.58936         1.27268        -0.66918

