%chk=CC1dCC2dC3CdCC3dC3CdCCdCCdC3CdNC12.chk
%NProcShared=20
# opt freq b3lyp/6-31g(2df,p)

Title Card Required 

0  1
C           1.03234        -0.06201         0.08531
C           2.54042        -0.02604        -0.28782
C           3.22252         0.82528        -1.10489
C           4.49861         0.13482        -0.87119
C           5.81668        -0.03078        -0.56291
C           6.82460        -0.96342        -0.19155
C           7.74683        -0.00812        -0.18267
C           6.74002         1.03852        -0.24213
C           6.86008         2.33099         0.17952
C           8.18101         3.02199         0.17906
C           8.43366         4.34553         0.13541
C           7.50047         5.43899         0.07447
C           6.16391         5.36851         0.12811
C           5.32060         4.22123         0.40942
C           5.63282         2.93179         0.67509
C           4.44049         2.01250         1.01128
N           4.38220         0.77319         1.46422
C           3.88154        -0.30448         0.44284
H           0.61993         0.95656         0.10741
H           0.77784        -0.59181         1.00579
H           0.45894        -0.51296        -0.74264
H           2.69064         1.80923        -1.13299
H           6.87128        -2.04990        -0.00387
H           8.82279         0.01976         0.06784
H           9.06773         2.39200         0.14417
H           9.47503         4.67924         0.09662
H           7.95138         6.43232        -0.01267
H           5.62723         6.31559         0.04755
H           4.27129         4.50450         0.39470
H           3.61632         2.39373         0.41569
H           4.02574        -1.37832         0.66909

