%chk=CC1dCCdCCdCCdC2CdC2CdC1S.chk
%NProcShared=20
# opt freq b3lyp/6-31g(2df,p)

Title Card Required 

0  1
C           1.00313        -0.06596         0.06531
C           2.50975        -0.07063         0.07885
C           3.20228         0.39289         1.12240
C           4.62722         0.40073         1.13150
C           5.34064         0.84582         2.15206
C           6.75222         0.78130         2.00532
C           7.49157         1.20816         2.98475
C           8.89158         1.18490         2.93939
C           9.39950         1.64635         4.00645
C          10.33638         2.01422         4.83611
C           9.00572         2.18043         5.21938
C           7.47267         2.33965         5.58419
C           3.23187        -0.59252        -1.15046
S           2.32687        -1.21826        -2.58765
H           0.58729         0.34048         0.99375
H           0.60952        -1.08211        -0.04422
H           0.61350         0.54913        -0.75411
H           2.67568         0.77572         1.99248
H           5.17562         0.02660         0.27198
H           4.87098         1.23859         3.05481
H           7.28747         0.41013         1.15333
H           6.92008         1.57131         3.80709
H           9.55114         0.85261         2.17125
H          11.42593         1.96766         4.72041
H           6.41509         2.05566         5.46024
H           3.31374        -1.56901        -3.42493

