%chk=CC1dCCdCCdCCdCqSCtNrNdNO1.chk
%NProcShared=20
# opt freq b3lyp/6-31g(2df,p)

Title Card Required 

0  1
C           2.27017        -0.13981         0.28887
C           4.34640        -0.28364         0.74136
C           3.32625        -0.55235         1.58668
C           4.68741        -0.50280         1.43081
C           5.09584        -0.89765         2.67300
C           6.40290        -0.88604         2.63642
C           6.70550        -1.19200         3.59903
C           8.56077        -0.71449         2.09673
C           8.73779        -1.28602         3.89478
S           8.69701        -1.90069         5.82850
C           6.98786        -2.00016         6.14144
N           5.84482        -1.91951         5.88770
N           9.75028        -1.11999         3.37246
N           7.97300        -1.06195         3.18993
O           6.42772        -0.47364         1.33911
H           1.10883        -0.38778         1.06897
H           1.26448        -0.73943        -0.52975
H           1.26448         0.82242        -0.03329
H           2.62010        -0.79228         2.34150
H           5.58248        -0.07449         0.08337
H           4.58644        -1.16890         3.52633
H           7.57980        -0.45458         1.27911
H           7.00786        -1.47757         4.49736
H           9.63157        -0.65836         1.92018

