%chk=CC1dCCdNC2dCC2dCSCdC1.chk
%NProcShared=20
# opt freq b3lyp/6-31g(2df,p)

Title Card Required 

0  1
C           1.33200         0.27765        -0.29742
C           2.90639         0.22686        -0.24795
C           3.16055        -0.73272         0.68667
C           4.52310        -0.97594         0.92357
N           5.22571        -1.72880         1.65685
C           6.54872        -1.55384         1.48644
C           7.68711        -1.93011         1.85292
C           7.71700        -0.89464         0.84438
C           7.20920        -0.00898        -0.01825
S           7.25693         1.19403        -1.18997
C           5.32977         1.53017        -1.51737
C           3.99056         1.16464        -1.16135
H           0.89415        -0.46060         0.42163
H           0.88255        -0.05657        -1.23696
H           0.88255         1.20806         0.06143
H           2.48589        -1.33310         1.27144
H           4.92619        -0.30067         0.26586
H           7.99454        -2.66163         2.56542
H           6.22210         0.06155        -0.08694
H           5.43991         2.32076        -2.28740
H           3.27995         1.77327        -1.75414

