%chk=CC1dCCC2CNCNdC3CdCC3dCCdCCdCC2dC1.chk
%NProcShared=20
# opt freq b3lyp/6-31g(2df,p)

Title Card Required 

0  1
C           1.32198        -0.29341        -0.02503
C           2.89907         0.06886        -0.05978
C           2.96028         1.39931         0.06833
C           4.24327         2.04594         0.15624
C           5.30234         1.06766         0.34793
C           5.76029         0.34424         1.68061
N           6.27866         1.44285         2.44444
C           7.57982         1.17993         2.97106
N           8.28933         2.39553         2.85621
C           9.13427         2.61610         3.77084
C           9.62298         2.01492         4.97026
C          10.36657         3.12029         5.23936
C          10.01236         3.72342         3.98376
C          10.19240         4.75203         3.14941
C           9.31189         4.73043         1.86395
C           9.00933         3.97214         0.69415
C           7.67067         2.83923         0.09691
C           7.34794         1.38377        -0.27762
C           5.88911        -0.01813        -0.40023
C           4.47334        -0.62376        -0.36244
H           0.72677         0.66259        -0.00292
H           0.91231        -0.75139         0.89407
H           0.88234        -0.75931        -0.91358
H           2.11495         2.07482         0.08198
H           4.31357         2.72429         0.98113
H           4.38472         2.53805        -0.82620
H           5.36154         1.14436        -0.79577
H           6.52675        -0.48698         1.57735
H           4.99285        -0.17683         2.26595
H           6.36036         2.24735         1.82571
H           8.20446         0.39536         2.51391
H           7.35724         0.95127         4.00035
H           9.39735         1.06209         5.41775
H          11.02996         3.37771         6.06043
H          10.77613         5.60927         3.53733
H           8.40743         4.72843         2.45689
H           8.86300         4.94133         0.09353
H           7.18238         3.65530        -0.47524
H           8.12660         0.65646        -0.11539
H           4.24616        -1.72696        -0.38514

