%chk=CC1dCCdCCdCCdCdCCqCOrCdN1.chk
%NProcShared=20
# opt freq b3lyp/6-31g(2df,p)

Title Card Required 

0  1
C           2.78293         1.02128         0.19648
C           4.49729         2.26199         0.69941
C           3.80766         1.14772         1.31242
C           4.99980         0.48243         1.37487
C           5.65012         1.10014         2.38106
C           7.13760         1.07821         2.32099
C           7.83527         1.90598         3.13194
C           9.30474         1.97285         2.91071
C          10.02335         2.56444         3.82342
C          10.42260         3.68794         4.29293
C           9.93869         4.26365         2.75337
C          10.72363         5.86488         2.72327
O          10.44226         5.46820         1.39355
C           7.90158         3.79532         1.92865
N           6.41844         2.95675         1.27484
H           1.44216         1.00890         0.83069
H           1.95790        -0.26597         0.42159
H           1.67180         0.67816        -0.68112
H           2.84218         1.53852         1.87999
H           5.36226         0.06129         0.38368
H           5.05383         2.14252         2.68421
H           7.55761         0.92030         1.27634
H           7.17723         2.84261         3.48254
H           9.74022         1.75306         1.91574
H          10.29557         4.06687         5.34564
H          11.43697         4.24895         2.99403
H          11.70341         6.48204         2.43733
H          10.13061         6.59322         3.25689
H          11.11881         4.76214         1.21491
H           8.47712         4.57363         3.10777

