%chk=CC1dCdCCqCrCdCCdCCdCNdC1.chk
%NProcShared=20
# opt freq b3lyp/6-31g(2df,p)

Title Card Required 

0  1
C           1.87969        -0.75029        -0.45802
C           3.67828        -1.25080        -1.11254
C           3.61278        -0.03520        -1.53787
C           3.52454        -0.24240        -2.78728
C           3.35470        -1.79945        -3.28251
C           2.04138        -2.42218        -3.29959
C           4.04988        -1.70041        -4.55386
C           4.12271        -2.79488        -5.29009
C           4.84210        -2.62963        -6.51025
C           5.28355        -3.78550        -7.03259
C           6.74494        -3.56909        -6.72329
C           6.62428        -3.59176        -5.16061
N           6.07383        -2.76341        -3.55715
C           5.25454        -2.06904        -2.29888
H           1.03881        -0.53525        -1.20383
H           1.58393         0.40667         0.01527
H           1.28734        -1.17481         0.44224
H           4.40514         0.34434        -3.06444
H           3.62970        -2.75338        -2.52745
H           1.59792        -1.73315        -3.97907
H           1.68256        -2.44646        -2.26626
H           2.26878        -3.45600        -3.61226
H           4.87900        -0.95427        -4.63393
H           4.18062        -3.75345        -4.70326
H           5.65774        -1.83720        -6.44291
H           4.90675        -4.77073        -6.66390
H           6.92242        -3.10675        -7.84640
H           6.66207        -4.82560        -5.69243
H           5.94491        -1.63573        -1.55207

