%chk=CC1dCNC2dCCqdCdCdC2rCdC2CdC2C1C.chk
%NProcShared=20
# opt freq b3lyp/6-31g(2df,p)

Title Card Required 

0  1
C           1.45565        -0.13180         0.06136
C           3.60694        -0.38303         0.15015
C           3.38741        -1.57437         0.11086
N           4.63009        -1.66506        -0.29689
C           4.88537        -2.86762         0.20698
C           6.03953        -2.56097         0.02672
C           7.05875        -1.98557        -0.37430
C           6.50675        -3.75221         0.05188
C           5.97306        -5.07425         0.32540
C           4.92157        -4.30231         0.28705
C           8.61265        -3.06762         0.15727
C           8.38111        -4.59523         0.34514
C           9.30948        -3.82090         0.40215
C           7.70111        -2.72730         0.89151
C           5.69576        -0.93812         0.79523
C           4.01733         0.70880         0.14606
H           0.76323        -1.06404         0.09599
H           0.79224         0.39597        -0.86777
H           0.79052         0.50187         0.87799
H           2.63988        -2.21942         0.15982
H           5.75689        -0.53856        -0.46211
H           7.15404        -1.37956         0.10033
H           3.78432        -3.99015         0.27223
H           9.70931        -2.40132         0.16306
H          10.88822        -4.32867         0.29177
H           5.07967         0.37261         0.05653
H           2.42041         1.42462        -0.03221
H           3.18942         2.02627        -0.68551
H           3.16289         2.13239         0.54130

