%chk=Cc1nscqSrc1C1dCCdCC[SH]d[SH]1.chk
%NProcShared=20
# opt freq b3lyp/6-31g(2df,p)

Title Card Required 

0  1
C           1.13394         0.18524         0.08164
C           2.63114         0.15179         0.01226
N           3.34284         1.28007         0.06080
S           4.96857         0.89802         0.03614
C           4.77320        -0.79124        -0.09360
S           6.07644        -1.98468        -0.17441
C           3.41235        -1.04736        -0.06390
C           2.86077        -2.36718         0.04358
C           2.11761        -2.84858        -0.94470
C           1.47274        -4.09741        -1.17604
C           1.49662        -5.21083        -0.46588
C           2.06667        -5.64821         0.82138
S           3.15831        -4.80762         1.89924
S           3.28726        -3.01769         1.62455
H           0.72783         1.19921         0.10398
H           0.77610        -0.34745         0.97154
H           0.70386        -0.31987        -0.79171
H           7.15904        -1.24090         0.07006
H           1.95281        -2.17816        -1.79764
H           0.90427        -4.12303        -2.11238
H           0.93615        -6.03474        -0.91496
H           2.61455        -6.57050         0.61036
H           1.21292        -5.90149         1.45239
H           4.35034        -5.20792         1.53005
H           4.59019        -2.99759         1.40235

