%chk=CC1qCC2dCqOOrCdCSCdC2rNdCS1.chk
%NProcShared=20
# opt freq b3lyp/6-31g(2df,p)

Title Card Required 

0  1
C           0.78599        -0.16233        -0.03077
C           2.30165        -0.04804         0.01632
C           2.74199         0.00101         1.49703
C           4.24067         0.01370         1.76243
C           4.94631         1.12204         1.45280
O           4.20709         2.28532         1.14890
O           4.92103         3.09860         0.17033
C           6.36931         1.28964         1.49263
C           7.36868         0.57662         2.02033
S           7.44534        -0.86285         2.91658
C           5.89191        -1.54948         2.95908
C           4.70655        -1.16841         2.47244
N           3.00853        -1.05518        -0.79963
C           3.59270        -0.26272        -1.63295
S           2.81602         1.18158        -1.17586
H           0.42812        -0.97572         0.60723
H           0.40428        -0.32104        -1.04258
H           0.35112         0.76865         0.35759
H           2.29122        -0.87420         1.99201
H           2.27429         0.85235         2.00765
H           4.12318         3.42550        -0.28627
H           6.71437         2.18403         0.97773
H           8.34823         1.02228         1.87225
H           5.87597        -2.48617         3.51732
H           3.90846        -1.86594         2.74554
H           4.30351        -0.45159        -2.45099

