%chk=CCC1CCdCCdNCdCNdCCdCCdC2CdC2CdN1.chk
%NProcShared=20
# opt freq b3lyp/6-31g(2df,p)

Title Card Required 

0  1
C           2.09815        -0.16623        -0.46338
C           4.32658        -0.57536        -1.58609
C           6.50463        -1.10134        -3.24245
C           5.18469        -0.70533        -1.47077
C           5.89145        -1.63921        -2.66432
C           7.25888        -2.15912        -2.21809
C           7.06225        -2.60571        -3.87712
N           8.14673        -3.11676        -3.82405
C           8.58601        -3.39998        -5.32933
C           9.82649        -3.50862        -5.46446
N          10.43630        -3.97700        -6.81288
C          11.66050        -4.20031        -6.95349
C          12.05909        -4.87953        -8.20237
C          13.26342        -5.38620        -8.31195
C          14.06652        -5.46316        -9.57406
C          14.59387        -4.90750        -8.37531
C          14.27390        -4.25666        -9.28804
C          12.97813        -3.39682        -7.68467
C          10.91142        -2.38018        -5.97089
N           8.99971        -1.76313        -4.68584
H           0.92541         0.46843         0.78993
H           0.79429        -0.97524         0.02105
H           0.78019         0.54560        -0.83938
H           3.43591        -0.54683         0.09279
H           3.38984         0.58290        -0.44378
H           4.74159        -1.32834        -2.29738
H           5.05091        -1.22976        -0.27272
H           5.14619         0.50715        -1.16077
H           4.45518        -1.86534        -3.30114
H           7.25194        -1.06804        -1.82105
H           6.24797        -2.58102        -4.59689
H           7.96577        -3.41934        -6.07491
H          10.63032        -2.80942        -4.61218
H          12.52942        -4.05338        -6.24300
H          11.57765        -5.03732        -8.96855
H          13.98597        -4.74228        -7.09346
H          13.49974        -5.94272       -10.34240
H          15.27329        -5.50024       -10.50666
H          12.77805        -2.78255        -6.06649

