%chk=CCC1CqdSrCdCCdCNdC1CdNNdN.chk
%NProcShared=20
# opt freq b3lyp/6-31g(2df,p)

Title Card Required 

0  1
C           1.04515         0.17105        -0.05524
C           2.58923         0.28682        -0.03522
C           3.50827         1.08441        -1.11181
C           4.85963         0.41451        -1.25573
S           5.65108        -0.24487         0.08545
C           5.45169         0.65410        -2.63173
C           6.69617         1.07936        -2.66509
C           6.74051         2.51355        -3.05417
C           6.23843         3.16274        -1.96720
N           4.82873         3.47356        -1.60068
C           3.72433         2.73997        -1.22276
C           2.18334         3.27738        -1.11111
N           1.52880         4.34267        -0.68635
N           0.04215         4.07611        -0.71288
N          -0.63902         5.08567        -0.39551
H           0.72645        -0.55777         0.71633
H           0.64617        -0.22786        -0.99443
H           0.53577         1.10029         0.20457
H           2.86039        -0.77852        -0.14429
H           2.86734         0.56929         0.98477
H           2.96365         0.86782        -2.05302
H           4.74015         1.23752        -3.26746
H           7.37227         0.82598        -1.81995
H           6.35959         2.63314        -4.07345
H           7.10850         3.20142        -1.25656
H           1.50684         2.45984        -1.41344
H          -1.67645         4.96890        -0.37605

