%chk=CCC1dNCdCCdCCdCqNrCdCCCdC1.chk
%NProcShared=20
# opt freq b3lyp/6-31g(2df,p)

Title Card Required 

0  1
C           1.44118        -0.46122         0.01589
C           3.43502        -1.65710         0.15929
C           4.87902        -3.83393         0.42024
N           4.54594        -2.00459         0.20097
C           5.01119        -3.05570         0.32704
C           6.40211        -3.10579         0.33305
C           6.72579        -4.28324         0.47443
C           8.11294        -4.56333         0.50787
C           8.50562        -5.72368         0.64721
C           9.84090        -6.24693         0.70976
N          10.84569        -5.32848         0.59959
C           9.42774        -8.37320         0.96475
C          10.98589        -7.09962         0.81207
C          10.52525        -8.65024         0.99798
C           8.51152        -7.24228         0.82890
C           6.77734        -5.80249         0.65617
H           0.66518         0.89448        -0.14669
H           0.60805        -0.48969         0.90477
H           0.60805        -0.69905        -0.84105
H           3.01184         0.01158         0.68076
H           3.01184        -0.15903        -0.74192
H           3.33549        -3.23514         0.34856
H           6.87824        -2.37137         0.24497
H           5.55550        -5.78849         0.65508
H           8.80392        -4.00036         0.44032
H           7.29450        -7.06645         0.80817
H          10.41851        -4.53632         0.50460
H          11.75702        -5.70653         0.64494
H           9.19605        -9.26041         1.07112
H          12.21872        -7.50618         0.86076
H          11.49428        -9.98550         0.41625
H          11.49430        -9.81012         1.87895
H          10.47021        -8.12573         0.93485
H           5.20612        -4.85923         0.54316

