%chk=CCC1dC2SCqdCdc3ccccc3dCCdC1rCC2N.chk
%NProcShared=20
# opt freq b3lyp/6-31g(2df,p)

Title Card Required 

0  1
C           1.10133         0.07313        -0.15433
C           2.64985        -0.11562        -0.17654
C           3.88952         0.82844        -0.53512
C           4.64046         1.27419        -1.61291
S           6.39953         0.54548        -1.59998
C           6.91709         1.90903        -0.45885
C           7.53529         1.92430         0.71623
C           8.04213         1.84387         1.94294
C           8.66581         2.95371         2.66510
C           9.65687         2.78602         3.56637
C          10.04459         1.45239         3.99649
C           9.33806         0.35606         3.57243
C           8.10160         0.52470         2.56665
C           7.14735        -0.35514         2.07544
C           5.77096        -0.08558         1.07025
C           4.72648         0.88108         0.91137
C           6.53393         3.08397        -1.22050
C           5.11410         2.80481        -1.81581
N           4.26493         3.93520        -1.46926
H           0.65852        -0.77173         0.41955
H           0.65011         0.03813        -1.14542
H           0.74788         0.96736         0.37679
H           2.87326        -1.10767        -0.56797
H           2.75652        -0.18862         0.92177
H           8.24567         3.92885         2.49819
H          10.13052         3.64233         4.05607
H          10.84527         1.44499         4.76146
H           9.61738        -0.57525         4.07755
H           7.57153        -1.37873         2.03683
H           6.04880        -0.82003         0.28487
H           3.87331         1.63085         0.71205
H           7.30391         3.02193        -1.99428
H           6.66627         4.00093        -0.64127
H           5.21179         2.84456        -2.90828
H           4.23357         4.09116        -0.46663
H           3.32910         3.82449        -1.83571

