%chk=CCC1dCOCdC2CdCCCdCCC2dCdC1.chk
%NProcShared=20
# opt freq b3lyp/6-31g(2df,p)

Title Card Required 

0  1
C           0.94386         0.03084        -0.11304
C           2.52838         0.30689        -0.50639
C           3.43259         1.36265        -2.02919
C           4.56585         1.01095        -1.50153
O           5.26385         1.63463        -2.38790
C           6.42930         1.99413        -2.88986
C           6.99828         2.75843        -4.07691
C           8.29691         2.62804        -3.78369
C           9.00351         3.23606        -4.60542
C          10.21421         3.60906        -5.02684
C           9.71149         4.75245        -5.84099
C          10.76542         4.63341        -6.63050
C           8.88105         4.06646        -6.94017
C           6.91693         3.72249        -5.69924
C           5.44719         3.14203        -4.78353
C           4.05698         2.48058        -3.65932
H           0.61278        -0.60570         0.78746
H           0.51708        -0.46920        -0.96521
H           0.51721         1.00126         0.07471
H           2.83136        -0.89280        -0.27205
H           2.83220         0.48904         0.70433
H           4.95601         0.44358        -0.69220
H           6.91641         1.44453        -2.08899
H           8.84668         2.14481        -3.10448
H           8.47760         3.75965        -5.23864
H          10.58158         2.64595        -5.41361
H          10.61680         4.15881        -4.24856
H           8.30324         5.28078        -6.20606
H          12.04355         4.36027        -6.33794
H           9.89402         4.55843        -7.97007
H           9.70357         5.41234        -7.36156
H           2.71286         2.24401        -3.26962

