%chk=CCC1dC2NdCNdCNdNCqCqOrCNrC12.chk
%NProcShared=20
# opt freq b3lyp/6-31g(2df,p)

Title Card Required 

0  1
C           1.18120        -0.07603        -0.09920
C           3.19813        -0.11679        -0.53096
C           4.83556        -0.28199        -1.98489
C           5.88614        -0.33619        -2.30610
N           5.07219        -0.35139        -3.38465
C           6.01991        -0.44380        -4.16827
N           6.16297        -0.54437        -5.33964
C           7.29684         0.14339        -4.96963
N           7.62269        -0.39524        -6.16059
N           8.96588        -0.29653        -6.29333
C           8.71662        -0.97257        -4.70565
C          10.40909        -0.74411        -6.36363
O          11.79979        -1.86482        -6.70298
C          11.48002        -0.77037        -8.38923
N          13.37216        -0.84274        -9.03386
C           7.00156        -0.52659        -2.74496
H           0.70400         0.02053         1.03475
H           0.62951        -0.99580        -0.38812
H           0.62984         0.78386        -0.53838
H           3.01325        -0.90150         0.47921
H           3.01450         0.83517         0.33199
H           7.62874        -0.58677        -3.85623
H           8.61809         0.10702        -3.73518
H           8.99729        -0.87973        -6.31658
H          11.46851         0.17906        -6.96513
H          11.73318        -2.58432        -7.42083
H          11.62004        -0.00078        -9.58822
H          11.62809        -1.73205        -9.43755
H          13.91228         0.02448        -8.82730
H          13.80554        -0.92865       -10.12619
H           6.76692        -0.21455        -1.45692

