%chk=CCC1dCCdCCdCC2dCCdCqCCCdCNdNO1rC2.chk
%NProcShared=20
# opt freq b3lyp/6-31g(2df,p)

Title Card Required 

0  1
C           1.92044         0.61344         0.46773
C           3.67287         1.80513         1.37798
C           5.03957         3.38691         2.58856
C           4.77184         1.93274         1.51778
C           5.30411         2.85238         2.24095
C           6.69375         2.54231         2.01260
C           7.14705         3.51444         2.82559
C           8.29603         3.91841         3.11535
C           8.69558         4.86793         4.01907
C           8.31693         4.87596         5.31786
C           9.31670         5.71542         6.01960
C          10.12240         6.32984         5.03673
C          11.15684         7.38484         4.98519
C          11.16929         8.00461         6.24576
C          12.02306         9.04043         6.70755
C          10.44386         8.80246         7.16035
N           8.87896         7.73376         6.16939
N           7.64625         6.63686         4.89879
O           6.22115         5.07646         3.85820
C           9.81013         5.75672         3.75900
H           1.14064        -0.52612        -0.44052
H           0.88482         1.01931        -0.33737
H           0.88533        -0.09197         1.04892
H           3.46219         0.93975        -0.04490
H           3.46497         0.20275         0.90470
H           5.20868         0.84189         0.66011
H           3.73660         3.44680         2.69055
H           7.12404         1.81358         1.44452
H           6.30516         3.87034         3.24073
H           8.90968         3.27304         2.60156
H           7.29138         4.74204         5.69384
H           8.90942         6.32938         6.93022
H          11.05099         8.26969         4.35092
H          12.10141         6.95724         5.02111
H          11.08020         7.24634         7.24503
H          10.14533         8.84650         5.62249
H          12.84560         9.27577         5.94943
H          11.28629         9.51238         8.44293
H          10.64947         5.14179         3.63448
H           9.58434         6.48180         2.99499

