%chk=CCC1CdCCdC2CdCCdC2CdCCdC1C1dCC1.chk
%NProcShared=20
# opt freq b3lyp/6-31g(2df,p)

Title Card Required 

0  1
C           1.13302         0.05387        -0.09641
C           2.58083        -0.33909        -0.13816
C           3.15089        -1.85360         0.13789
C           4.62819        -1.43242        -0.00988
C           5.52315        -2.37851        -0.01155
C           6.92840        -2.52346         0.06327
C           7.52435        -3.72894         0.18106
C           8.95414        -3.89752         0.19262
C           9.18720        -5.21860         0.27028
C           7.92339        -5.95357         0.32153
C           6.89962        -5.08931         0.27896
C           5.48523        -5.26411         0.30691
C           4.33729        -5.91183         0.21532
C           3.04450        -4.93459        -0.11646
C           2.64206        -3.52404        -0.26008
C           1.37599        -3.23216        -0.88890
C           0.54682        -3.23740        -1.85195
C           0.08684        -2.63339        -0.64543
H           0.95960         1.13740        -0.02941
H           0.64484        -0.39818         0.76852
H           0.71803        -0.19925        -1.06710
H           3.01340         0.28356         0.67329
H           3.00235         0.11010        -1.05529
H           2.91961        -1.93576         1.20784
H           4.95647        -0.39683        -0.02309
H           4.92744        -3.22472        -0.14826
H           7.50021        -1.60534         0.01910
H           9.66187        -3.08782         0.12629
H          10.16269        -5.67712         0.28507
H           7.84642        -7.02734         0.37578
H           5.13092        -4.43194         0.85820
H           4.39272        -7.01188         0.11128
H           2.30626        -5.74603        -0.31022
H           0.38829        -3.47093        -2.89199
H          -0.15369        -2.91846         0.36933
H          -0.33094        -1.64700        -0.81926

