%chk=CCC1dCNCqdNrCdCCdCCdCCdC1.chk
%NProcShared=20
# opt freq b3lyp/6-31g(2df,p)

Title Card Required 

0  1
C           1.23413        -0.01732         0.20671
C           3.16648        -0.09279         1.30744
C           4.42224        -0.23631         3.40652
C           4.47818        -0.12495         1.77812
N           5.17808        -0.20778         2.98913
C           6.43077        -0.21570         3.10428
N           7.19072        -0.15142         2.16514
C           7.17490        -0.28898         4.17289
C           8.30522        -0.30866         4.46204
C           8.50014        -0.39147         5.64508
C           9.88194        -0.41075         5.94955
C           8.98164        -0.47274         6.87608
C           9.91889        -0.52625         7.64780
C           7.70306        -0.47976         6.98215
C           5.94810        -0.37679         5.47708
H           0.65639         0.06904        -1.05437
H           0.58943         0.85036         0.50966
H           0.58943        -0.91818         0.38856
H           2.94828         0.78785        -0.15298
H           2.94827        -0.76597        -0.25941
H           5.04549        -0.05878         0.81260
H           5.21947        -0.29829         4.30996
H           6.74711        -0.09237         1.30283
H           7.21466        -0.37718         5.46371
H           8.97796        -0.27049         3.90429
H           6.71606        -0.45067         6.48880
H          10.83365        -0.39043         5.65631
H           8.82128        -0.60397         8.79218
H          11.64863        -0.51870         7.53004
H           9.37526        -0.55201         7.99020
H           4.32082        -0.35294         5.11698

