%chk=CCC1dCCdCNdCCdc2ccccc2dCCdC1.chk
%NProcShared=20
# opt freq b3lyp/6-31g(2df,p)

Title Card Required 

0  1
C           1.03020         0.15324        -0.09951
C           2.72183         0.37920        -0.13205
C           3.87235         1.72943        -0.88207
C           4.67614         0.87667        -1.52443
C           4.97378         1.49285        -2.93919
C           6.02201         2.21580        -3.32482
N           6.05631         3.69785        -3.69840
C           7.28787         3.85648        -4.05580
C           8.15309         4.94184        -4.51089
C           9.47345         5.00423        -4.40227
C          10.19597         5.98382        -5.35050
C          11.48275         5.93704        -5.74153
C          12.30343         5.04771        -4.94982
C          11.75559         4.26542        -3.87568
C           9.98620         4.05473        -3.36090
C           9.00931         3.24809        -2.27233
C           7.11490         3.15133        -1.36086
C           5.43107         2.97494        -1.08602
H           0.65336        -0.66173         0.60023
H           0.59374        -0.13779        -1.06669
H           0.55793         1.05858         0.26443
H           2.92411        -0.72418        -0.42847
H           2.89034         0.34711         0.94409
H           5.15226         0.43925        -0.60268
H           4.40250         2.37188        -3.16616
H           6.54489         1.78738        -2.46266
H           7.80424         2.91503        -3.88032
H           7.62910         5.65275        -5.05927
H           9.57928         6.74664        -5.81675
H          11.91149         6.58834        -6.54149
H          13.39085         5.19448        -5.28284
H          12.62764         3.94476        -3.28772
H           9.95580         2.63591        -2.07456
H           7.63389         4.00192        -2.02489
H           4.11091         3.08958        -1.70736

