%chk=CCC1dCCqCrdCdCCdCdCOC1dO.chk
%NProcShared=20
# opt freq b3lyp/6-31g(2df,p)

Title Card Required 

0  1
C           1.32728        -0.13687         0.30952
C           2.97182        -0.35060         0.47380
C           4.21444        -0.33105         1.77127
C           4.80158         0.84583         1.69791
C           5.23948         1.38809         2.97575
C           4.23231         1.16706         4.24996
C           6.55789         1.31758         2.95974
C           7.81026         0.98806         2.77623
C           8.30881        -0.40180         2.24908
C           8.97085        -1.06586         3.11786
C           8.31014        -1.20951         4.22573
O           6.57472        -1.07412         3.88042
C           5.03114        -1.24647         3.11039
O           4.23412        -1.71814         3.80582
H           1.00608        -0.23797        -0.76444
H           0.91579         0.86149         0.55250
H           0.74494        -0.90370         0.82128
H           3.23794         0.52682        -0.18386
H           3.17569        -1.19901        -0.18113
H           5.47784         0.72920         0.82196
H           3.16738         0.99404         3.97512
H           4.23374         2.02254         4.92666
H           4.45615         0.31221         4.91921
H           8.40100         1.40037         3.60460
H           7.63706        -1.24992         1.99082
H           8.96837        -0.48606         4.81535

