%chk=CCC1dCCdCCdCCCCdC2CdCCdS2S1.chk
%NProcShared=20
# opt freq b3lyp/6-31g(2df,p)

Title Card Required 

0  1
C           1.05661        -0.08611         0.09060
C           3.01068        -0.24871         0.84713
C           4.42464        -0.72211         2.69037
C           4.82646        -0.39529         1.53485
C           5.12480        -0.49245         2.96068
C           6.80570        -0.13044         3.02991
C           7.14686        -0.34333         5.11516
C           8.17063        -0.67890         4.72389
C           8.08656        -1.19659         6.23501
C           9.10479        -1.34611         7.10656
C          10.17665        -1.47713         7.79053
C          11.22528        -1.36829         7.08053
C          12.04486        -1.66946         8.82926
C          13.23539        -1.57935         8.36225
C          12.17219        -1.27046         6.46269
S           9.84308        -1.31389         4.99478
S           6.64460        -1.73116         3.94783
H           0.63023         0.11695        -1.02672
H           0.57424         0.72439         0.62468
H           0.57377        -1.02983         0.30756
H           2.90293         0.84967        -0.23463
H           2.90196        -0.84944        -0.54436
H           5.05765        -0.14847         0.60370
H           4.60452        -0.84209         4.40326
H           7.46026        -0.45434         2.13874
H           6.11721        -1.01568         5.78735
H           8.57460        -0.74569         3.77844
H           8.04691        -2.22119         6.55610
H           8.05335        -0.35179         6.90979
H           9.70669        -0.21602         6.66084
H           9.70159        -2.28983         6.33721
H           9.83943        -1.63756         8.69322
H          11.85701        -1.88231        10.01225
H          14.29329        -1.78776         9.56025
H          13.86197        -1.28257         6.77494

