%chk=CCC1dCqCqNdNrNdNrCCd[SH]S1.chk
%NProcShared=20
# opt freq b3lyp/6-31g(2df,p)

Title Card Required 

0  1
C           1.03822         0.02207        -0.06450
C           2.56871        -0.11200        -0.06571
C           3.06475        -0.55989         1.30334
C           3.74791         0.23616         2.18082
C           4.06869         1.73302         1.87310
N           2.78209         2.47654         1.83746
N           2.34208         2.70687         0.69219
N           4.91918         2.32630         2.95115
N           5.32233         3.48643         2.72208
C           4.17940        -0.19111         3.55561
C           4.27491        -1.62279         3.95756
S           3.54027        -2.97937         3.11093
S           2.48603        -2.17151         1.64568
H           0.67961         0.47814        -0.98953
H           0.68019         0.61873         0.78285
H           0.55425        -0.95783         0.01802
H           3.04499         0.80808        -0.40735
H           2.86961        -0.84467        -0.82606
H           4.63613         1.79749         0.93282
H           1.35799         3.00519         0.71119
H           5.84317         3.87543         3.52112
H           3.55599         0.30962         4.30737
H           5.21090         0.14843         3.71807
H           4.81722        -1.84902         4.88675
H           2.54051        -3.25651         3.92060

