%chk=CCC1CdCC2dCCdCNqCt[SH]rCdCCdCCdC21.chk
%NProcShared=20
# opt freq b3lyp/6-31g(2df,p)

Title Card Required 

0  1
C           1.09115         0.03380         0.13642
C           2.86763         0.04686         0.13142
C           4.20429        -0.69239         1.31845
C           2.91068        -2.00039         1.21428
C           3.72157        -2.96996         1.47879
C           5.18660        -2.27312         1.78764
C           5.83215        -3.14723         2.48662
C           6.92108        -2.55683         2.99771
C           8.05415        -2.86512         3.49237
N           8.86916        -1.94580         4.11312
C           9.00524        -0.10487         3.80414
S           9.38812         1.38921         2.68160
C           9.98987        -2.47054         4.68384
C          10.92731        -1.50673         4.87325
C          11.43897        -2.00889         3.62057
C          10.21434        -1.43382         2.48002
C           8.16823        -1.00321         1.84584
C           6.34743        -0.82050         1.56294
H           0.66907         0.62245        -0.72996
H           0.63947         0.49605         1.02245
H           0.62319        -0.95185        -0.01189
H           2.94024         1.12355         0.15627
H           2.95219        -0.38914        -0.86348
H           3.32409        -0.23862         2.19214
H           1.71479        -2.23928         0.99321
H           3.29676        -4.01573         1.51434
H           5.61177        -4.11495         2.77490
H           6.88207        -1.51288         3.16118
H           8.12774        -3.89310         3.65381
H          10.55141         1.70032         3.20114
H          10.30882        -3.59736         4.55102
H          11.15281        -0.30896         4.56422
H          12.21817        -2.72518         4.69523
H          11.55028        -0.95335         2.99086
H           7.76581         0.00059         1.41133

