%chk=CCCCC1dCCdCCdNCCN2CdCCqC1rN2O.chk
%NProcShared=20
# opt freq b3lyp/6-31g(2df,p)

Title Card Required 

0  1
C           1.09577         0.07281        -0.03219
C           2.67345         0.09747         0.02509
C           3.28629         0.69098         1.63645
C           5.05367         1.13664         2.56115
C           6.18320         2.12336         4.23808
C           6.79438         1.38618         3.16776
C           7.46238         1.30417         4.30123
C           8.67831         1.62480         4.43976
C           9.20779         1.90194         5.69865
N          10.43119         2.09127         5.75519
C          10.84696         2.45727         7.01115
C          12.26154         2.53085         7.18860
N          12.34617         2.98376         8.47136
C          12.08690         2.34661         9.58063
C          10.48822         2.65650         9.41582
C           9.15481         3.22015         7.80956
C           7.33180         2.73891         6.12058
N          10.98242         4.15220         8.42842
O          12.80432         4.84332         8.59330
H           0.70517        -0.27175        -1.00755
H           0.69153         1.07401         0.14081
H           0.69212        -0.59847         0.73123
H           2.96601         0.74246        -0.81114
H           2.96713        -0.93419        -0.21563
H           2.74588        -0.10912         2.15786
H           2.72163         1.60611         1.54851
H           5.16011         1.38188         1.10782
H           5.18001        -0.09937         1.70254
H           7.01897         0.80265         2.20546
H           7.04877         1.07092         5.26200
H           9.17421         1.41933         3.58149
H           8.70018         1.97430         6.65689
H          10.38856         1.79395         7.87565
H          10.55480         3.62147         6.88737
H          12.54951         3.32780         6.53113
H          12.57800         1.54669         7.10994
H          12.78645         1.40503         9.86537
H          11.40579         3.00467        10.59377
H           9.63001         4.01870         8.83551
H           6.05102         3.01606         5.69837
H           6.10055         2.00085         6.26788
H          13.75789         5.50769         9.03613

