%chk=CCCC1dNCdCCdCCdNNdCCdN1.chk
%NProcShared=20
# opt freq b3lyp/6-31g(2df,p)

Title Card Required 

0  1
C           1.08162         0.15405        -0.04547
C           3.06699         0.35777        -0.19058
C           4.77228         1.54294        -1.03473
C           7.14035         2.10312        -1.43373
N           5.55525         2.42585        -1.66361
C           6.94315         2.42878        -1.66569
C           7.43859         3.53100        -2.45077
C           8.86431         3.73878        -2.59878
C           9.14069         4.61704        -3.22432
C          10.21759         4.35903        -3.04055
N          11.22437         5.23959        -3.66775
N          12.18590         4.49095        -3.13447
C          12.56451         5.31508        -3.72158
C          11.27409         3.69191        -2.56538
N           9.34227         2.73930        -1.88686
H           0.66446        -0.72011         0.57717
H           0.64426         0.00540        -1.02894
H           0.64426         1.03492         0.41646
H           2.93317        -0.79508        -0.44868
H           2.93317         0.22489         0.98332
H           3.25907         2.12544        -0.55942
H           3.25907         1.28412        -1.74060
H           7.53446         1.09291        -0.71420
H           6.69031         4.03108        -2.80696
H          10.25045         2.45961        -1.68767
H           8.80534         5.22652        -3.65844
H          11.08456         2.85020        -1.96586
H          13.14532         6.52537        -4.58355
H          13.15541         3.79615        -2.63963

