%chk=CCCC1dCqSrc2ccqcs2rSCdCCdC1.chk
%NProcShared=20
# opt freq b3lyp/6-31g(2df,p)

Title Card Required 

0  1
C           1.23069         0.00446         0.03343
C           2.76817        -0.24036        -0.12673
C           3.69875         0.97830        -0.16664
C           5.37615         1.11562        -0.47416
C           5.66128         2.28547         0.22724
S           4.60084         3.66642         0.76871
C           6.98309         2.56371         0.55657
C           7.97311         2.34918        -0.32691
C           9.25365         2.42388         0.19569
C           9.20235         3.01753         1.43110
S           7.59770         3.23315         1.99301
S          10.69127         1.94328        -0.69917
C           9.81156         1.42924        -2.12325
C           9.43408         0.09834        -2.12838
C           7.88283        -0.25317        -1.97860
C           6.54483         0.06336        -1.37992
H           0.71551        -0.95236        -0.13775
H           0.81825         0.71350        -0.69426
H           0.90664         0.33463         1.03299
H           2.91365        -0.74548        -1.07177
H           3.05423        -0.87280         0.71960
H           3.56454         1.31511         0.89244
H           3.17527         1.77257        -0.73084
H           3.27895         3.40945         0.74570
H           7.62081         2.04898        -1.29314
H          10.02318         3.34403         2.03276
H           8.97558         2.00789        -2.41793
H          10.34169        -0.50470        -2.40370
H           7.86572        -0.77960        -2.97291
H           6.34650        -0.85319        -0.78764

