%chk=CCCC1dCNdC2CdCNdCCdCdS2NN1.chk
%NProcShared=20
# opt freq b3lyp/6-31g(2df,p)

Title Card Required 

0  1
C           0.99624        -0.10627        -0.03137
C           2.53320        -0.04433        -0.07613
C           3.28958        -1.39211        -0.11835
C           4.91256        -1.26255        -0.00646
C           5.33125        -1.22644         1.28703
N           6.38308        -1.92366         1.75179
C           7.62035        -1.85108         1.31033
C           8.51178        -2.92454         1.79832
C           9.30235        -3.48662         0.85880
N          10.56213        -3.98323         0.98509
C          11.37019        -3.07396         0.50712
C          11.14489        -1.56153         0.65255
C           9.92498        -1.02056         0.36088
S           8.29460        -0.50699         0.27726
N           7.44145        -1.14280        -1.16417
N           5.82072        -1.50647        -1.06329
H           0.58649         0.91470        -0.04685
H           0.61841        -0.57950         0.88279
H           0.57514        -0.63471        -0.89197
H           2.85020         0.50832         0.81495
H           2.82251         0.53274        -0.95608
H           2.93798        -2.00357        -0.96522
H           2.91101        -1.96407         0.75639
H           4.56970        -1.05420         2.04236
H           8.55386        -3.04851         2.85721
H           9.12443        -3.23107        -0.18912
H          12.26975        -3.38182        -0.05954
H          11.76359        -1.39968         1.58172
H           7.42333        -0.44598        -1.92766
H           5.38658        -1.85701        -1.92879

