%chk=CCCCC1dCCqSrdNNdNCdCqSrSN1S.chk
%NProcShared=20
# opt freq b3lyp/6-31g(2df,p)

Title Card Required 

0  1
C           0.97046        -0.05439         0.02902
C           2.52510         0.00109         0.02145
C           3.05518         1.52600        -0.20383
C           4.78643         1.99875        -0.26029
C           5.87461         3.69368        -0.76210
C           6.65008         2.87058        -0.02746
C           6.51238         4.11518        -0.81411
S           5.18986         6.34392        -1.03515
N           8.08183         3.99218        -0.59847
N           8.77926         5.07726        -0.73788
N           9.94474         5.35763        -0.76453
C           9.80630         6.63573        -0.95062
C          10.24162         7.78420        -1.11909
S          12.15978         6.86820        -0.98862
S           7.89915         7.26770        -1.12596
N           6.60414         5.49325        -0.40526
S           4.45749         4.41918        -0.53769
H           0.58550        -1.07615         0.17902
H           0.56461         0.30941        -0.92117
H           0.56457         0.56719         0.83446
H           2.84918        -0.68396        -0.77433
H           2.84918        -0.42656         0.97981
H           2.59878         2.05474         0.63476
H           2.60196         1.79231        -1.15831
H           5.01707         1.12788        -1.00006
H           5.03197         1.37192         0.69440
H           7.00128         1.87471        -0.42185
H           3.97433         5.84854        -0.83729
H           9.54378         8.01303        -1.15233
H          12.07006         5.46850        -0.78197
H           2.95315         4.70914        -0.66389

