%chk=CCCCCdCC1dCCdCCdCCdC1NdO.chk
%NProcShared=20
# opt freq b3lyp/6-31g(2df,p)

Title Card Required 

0  1
C           1.00082         0.08754         0.03980
C           2.51789         0.08310         0.04648
C           3.03501        -0.50706         1.35057
C           4.55670        -0.52663         1.37867
C           5.03512        -1.11178         2.67080
C           6.33723        -1.33436         2.89756
C           6.94529        -1.80226         4.16995
C           6.35780        -2.93626         4.60323
C           6.53541        -3.97225         5.57136
C           7.47048        -4.29543         6.46083
C           8.63586        -3.63537         6.92632
C           9.17591        -2.44838         6.66432
C           8.91992        -1.37299         5.75761
C           8.10854        -1.04077         4.72817
N           8.51700         0.15651         4.21725
O           7.84420         0.74068         3.36533
H           0.62602         0.50817        -0.89669
H           0.61178         0.68762         0.86885
H           0.61086        -0.93037         0.14239
H           2.89007         1.10697        -0.07541
H           2.88848        -0.50348        -0.80195
H           2.65045        -1.52754         1.47442
H           2.65789         0.08290         2.19648
H           4.93888         0.49727         1.28127
H           4.93841        -1.11234         0.53352
H           4.29789        -1.31601         3.44349
H           7.05020        -1.09617         2.10771
H           5.46688        -3.23569         4.03661
H           5.73727        -4.71817         5.49347
H           7.31654        -5.25374         6.96386
H           9.15697        -4.22126         7.68740
H          10.04987        -2.22633         7.28468
H           9.68018        -0.61070         5.98474

