%chk=CCCdC1CqNqCrOrNdCCdCCdCC2dCN21.chk
%NProcShared=20
# opt freq b3lyp/6-31g(2df,p)

Title Card Required 

0  1
C           1.45372         0.12541         0.11574
C           3.45444         0.33108         0.22683
C           5.18745         1.41316         0.84812
C           6.76700         2.13945         1.13198
C           5.34013         2.52446         2.21829
N           4.51919         1.87132         3.44298
C           4.78204         2.87614         4.47179
O           3.04056         1.97443         3.39349
N           6.53756         2.37883         2.80880
C           7.01423         3.40148         3.32038
C           8.17418         2.88792         3.87401
C           8.82224         3.93116         4.33695
C          10.30117         2.92365         4.34857
C          10.75076         4.11994         4.36311
C          10.01420         3.43078         2.68949
C           9.97186         4.31644         1.83029
N           8.59214         3.15911         1.67758
H           0.95680        -0.71880        -0.64456
H           0.81923         0.95424        -0.30950
H           0.83004        -0.25464         0.99425
H           3.30224         0.35241        -0.87509
H           3.33058        -0.82293         0.43828
H           3.91808         1.66024         1.31406
H           4.68732         3.33345         1.79266
H           5.83166         2.80604         4.69603
H           4.43933         2.66676         5.45696
H           4.51213         3.88825         4.11621
H           2.74642         1.17920         2.90962
H           6.42618         4.25358         3.52040
H           8.83878         1.99238         3.16552
H           8.43394         4.87767         4.77971
H          11.30115         2.48178         3.36769
H          10.67841         5.15686         4.90636
H          11.19590         4.60615         2.71295

