%chk=CCCqdOrCC1dCCdNCdCn2ncnc21.chk
%NProcShared=20
# opt freq b3lyp/6-31g(2df,p)

Title Card Required 

0  1
C           1.07570        -0.02717         0.12251
C           2.85738        -0.23335         0.33128
C           3.45326        -1.69021         1.53122
O           2.34887        -2.26851         1.66204
C           5.12997        -2.46737         2.49901
C           6.41428        -3.57945         3.78954
C           6.72803        -3.41588         2.50199
C           6.40952        -4.73894         2.55766
N           7.58521        -5.16384         2.35452
C           7.69227        -6.32847         2.93314
C           8.95027        -6.35135         3.41803
N           8.44238        -6.47839         4.59012
N           8.05895        -8.08928         4.75106
C           8.82136        -8.10521         5.83000
N           8.03715        -6.39250         5.89347
C           7.30926        -5.08617         4.95919
H           0.70652         0.85505        -0.49440
H           0.59983         0.12214         1.09473
H           0.61437        -0.88991        -0.37749
H           2.98164         0.84000         0.62141
H           2.99872        -0.20375        -0.80716
H           5.41367        -1.29028         2.30616
H           5.39359        -2.41576         1.15831
H           7.12007        -2.62901         1.83576
H           5.39404        -5.08130         3.11807
H           6.71644        -6.61542         3.79077
H           9.72909        -5.62389         3.64689
H           8.81504        -9.47188         6.07044

