%chk=CCCqOrC1dCCdCCdCC2dNCC2NdN1.chk
%NProcShared=20
# opt freq b3lyp/6-31g(2df,p)

Title Card Required 

0  1
C           1.30205         0.18187         0.02102
C           2.95277         0.02813        -0.16031
C           4.20149         1.00661         0.58316
O           3.56224         1.02818         1.99915
C           6.03687         1.62175         0.67050
C           5.68225         2.51587         1.61070
C           6.64084         2.61150         2.54430
C           7.35046         3.74112         2.54794
C           8.60456         3.38419         2.96307
C           9.36396         4.30436         3.49416
C          10.53978         3.81167         2.92358
N          11.67473         3.68147         3.47892
C          12.35814         3.18416         2.29226
C          10.66076         3.10249         1.41282
N           9.29953         1.88346         0.78922
N           7.77321         1.41213         0.48456
H           0.80327        -0.61076        -0.58468
H           0.85356         1.10893        -0.36994
H           0.88375         0.00785         1.02794
H           3.06794         0.07499        -1.23932
H           3.08281        -0.98322         0.23798
H           3.74411         1.96560         0.22544
H           3.07228         0.20782         2.20725
H           4.70014         2.76338         1.98031
H           6.90399         1.74609         3.11091
H           6.81349         4.53374         3.01052
H           8.97812         2.37594         2.72816
H           9.10537         5.28041         3.80252
H          13.13169         2.49548         2.70642
H          13.04290         4.10209         2.15705
H          10.94404         3.72731         0.54789

