%chk=CCdCC1dCCdCCdNCqdOrC1CN.chk
%NProcShared=20
# opt freq b3lyp/6-31g(2df,p)

Title Card Required 

0  1
C           1.15375        -0.01376         0.01840
C           2.70914        -0.00063         0.02642
C           3.61758        -0.84453        -0.55158
C           5.32034        -1.07818        -0.76077
C           5.17590        -2.17108        -1.50895
C           6.37973        -2.66644        -1.65706
C           7.32583        -3.42206        -2.01222
C           8.58516        -3.01495        -0.95356
N           8.92422        -2.77115        -2.20625
C           8.82677        -1.30446        -1.81644
O          10.08766        -1.46538        -1.63256
C           7.14564        -0.48067        -0.53640
C           5.80713         0.58421         0.31962
N           5.80306         1.93340         1.29262
H           0.76199         0.84751         0.59785
H           0.72166        -0.89866         0.50146
H           0.72215         0.10209        -0.98395
H           3.01219         0.85618         0.60015
H           3.02166        -1.63928        -1.07622
H           4.45868        -2.83754        -1.89185
H           6.94402        -2.00755        -1.20829
H           7.10375        -4.18325        -2.72322
H           9.04844        -1.81204        -0.19757
H           7.71062         0.19084         0.12927
H           5.06616         0.04450         1.10356
H           5.03537         1.04882        -0.37775
H           6.01453         1.64313         2.25198
H           4.83968         2.34412         1.50501

