%chk=CCdCC1dCCqdCCdCCCOrCdCCdC1N.chk
%NProcShared=20
# opt freq b3lyp/6-31g(2df,p)

Title Card Required 

0  1
C           1.04958        -0.05437        -0.05345
C           2.53915        -0.07146        -0.05379
C           3.26174        -0.42733         1.02250
C           4.74029        -0.51690         1.05770
C           5.36173         0.57780         0.58212
C           6.75656         0.95054         0.39805
C           7.06259         2.15228        -0.15972
C           6.12477         3.15496        -0.61873
C           6.45982         4.33026        -1.16007
C           5.38172         5.28256        -1.58694
C           5.97180         6.55266        -2.17580
O           4.93826         7.44382        -2.56895
C           7.88926         0.11626         0.76348
C           7.85994        -1.10341         1.31402
C           6.73528        -1.90713         1.70617
C           5.40369        -1.70006         1.63972
N           4.57132        -2.66225         2.18552
H           0.68093         0.30372        -1.01964
H           0.66367         0.61030         0.72470
H           0.66102        -1.06528         0.10148
H           3.03187         0.20287        -0.98477
H           2.75201        -0.69919         1.94389
H           4.66953         1.34860         0.27478
H           8.10931         2.42598        -0.29570
H           5.06037         2.97421        -0.53061
H           7.50123         4.60756        -1.28890
H           4.73953         5.53814        -0.73318
H           4.72765         4.80361        -2.32846
H           6.59070         6.32409        -3.04971
H           6.59761         7.05903        -1.43409
H           4.40415         6.99118        -3.24387
H           8.87907         0.52697         0.56741
H           8.82418        -1.56605         1.52182
H           7.05999        -2.84494         2.15494
H           4.96028        -3.55866         2.44450
H           3.58652        -2.63881         1.95132

