%chk=CCNC1dCCCdCCdCCdCCdCC2dCC1dC2.chk
%NProcShared=20
# opt freq b3lyp/6-31g(2df,p)

Title Card Required 

0  1
C           1.66077         0.25980         0.24577
C           3.81072         1.31067         1.22123
N           5.35368         3.11920         2.89998
C           6.98210         4.80972         4.46919
C           5.96893         3.39892         3.15963
C           6.66215         2.27565         2.11696
C           6.96991         3.38113         3.14311
C           8.19749         3.73014         3.46708
C           8.55496         4.87959         4.53404
C           9.59733         5.09967         4.73833
C           9.93705         5.87243         5.45564
C          11.07839         6.40735         5.95218
C          10.91025         7.10389         6.59873
C          12.39442         7.98881         7.42015
C          12.03940         9.11329         8.46394
C          11.13599         8.08024         7.50502
C           9.03031         6.75940         6.27896
C          10.01835         8.35042         7.75581
H           0.76549        -0.77346        -0.71335
H           0.73682         0.92820        -0.33077
H           0.73682        -0.26546         0.95517
H           3.15825         0.43761        -0.54102
H           3.15825        -0.51160         0.48156
H           3.88760         2.21893         2.06431
H           4.09989         3.02573         2.81322
H           6.93092         2.59170         1.18964
H           6.93092         1.37439         2.50106
H           5.55985         4.23196         3.93289
H           8.86455         3.25338         3.02453
H           7.60778         5.60646         5.20875
H          10.33095         4.71960         4.38553
H           8.08874         6.28037         5.83430
H          11.87527         6.18078         5.74186
H          10.15373         7.48372         6.95130
H          13.34998         7.65029         7.10592
H          13.01246         8.84132         8.21149
H          11.01505         9.65779         8.96936

