%chk=CCNdCdC1CdCCdCc2ncn1n2.chk
%NProcShared=20
# opt freq b3lyp/6-31g(2df,p)

Title Card Required 

0  1
C           1.45467         0.31096         0.14680
C           3.26679         0.40442        -0.07245
N           4.72521         1.54221         0.18378
C           5.80432         2.10700        -0.37330
C           7.19822         2.82774        -0.31228
C           6.88930         2.88087         1.11301
C           7.87992         2.57988         1.94753
C           8.71513         3.72693         1.88926
C          10.03572         3.64827         1.64716
C          10.39820         4.48497         0.57252
N           9.86771         5.71940         0.78906
C           9.09570         5.77292        -0.32131
N           8.52124         4.19354        -0.74799
N          10.11596         3.93128        -0.66434
H           1.01663        -0.36841        -0.66037
H           0.86088         1.22176        -0.00418
H           0.99426        -0.24555         1.01708
H           3.19507         0.55306        -1.12491
H           3.47663        -0.66239         0.20514
H           6.17816         3.73552         1.07587
H           8.35637         1.59273         1.92689
H           8.13043         4.56998         1.42108
H          10.61426         2.74811         1.72465
H           9.82240         6.48958        -0.95580

