%chk=CCOC1dNCdCCdCCdNC2dCC1dCCdNCdC2.chk
%NProcShared=20
# opt freq b3lyp/6-31g(2df,p)

Title Card Required 

0  1
C           1.94393         0.40059         0.36141
C           4.12871         0.77623         0.79848
O           6.13653         1.51474         1.42190
C           8.03411         2.26550         2.37288
N           6.61915         2.43537         2.77818
C           6.64886         1.17364         3.30968
C           6.79025         1.94188         4.38976
C           8.17146         2.20546         4.55926
C           8.57006         3.05739         5.44930
C           9.86007         2.99940         5.95364
N          10.41780         3.78715         6.78898
C          11.68111         3.75985         6.44008
C          11.43425         3.63004         4.73599
C          10.11744         2.58284         3.43233
C          11.87534         2.41314         4.38278
C          13.43607         1.89545         5.68584
N          13.63997         1.59088         7.08480
C          13.30446         2.42750         8.14505
C          12.55004         3.52080         7.90985
H           1.04154        -0.26997        -0.72898
H           0.86164         1.17316         0.06952
H           0.88345        -0.37819         0.91392
H           3.42860         0.84430        -0.53304
H           3.49016        -0.55397         0.32185
H           7.25556         0.65535         2.23272
H           5.92915         2.62662         4.64490
H           8.83921         1.63523         3.83817
H           7.84294         3.43597         6.03896
H          10.42221         2.15632         5.50703
H          12.31745         4.51302         4.64241
H          13.19719         3.04860         5.05395
H          14.50616         1.33105         5.31225
H          13.72086         2.22538         9.18573
H          12.35251         4.13991         8.84588

