%chk=CCOC1CdCCdCCdCCdC2NCdC2CdC1.chk
%NProcShared=20
# opt freq b3lyp/6-31g(2df,p)

Title Card Required 

0  1
C           1.15004         0.05090        -0.00361
C           3.00653         0.13358         0.05368
O           4.35445         1.04125         1.03754
C           6.31385         1.35428         1.42969
C           5.23973         1.31807         2.61638
C           6.36271         1.09247         3.17084
C           6.67646         1.97354         4.15765
C           7.91561         2.03182         4.50581
C           8.37958         2.79235         5.51816
C           9.60195         2.83862         5.84164
C          10.11917         3.49165         6.90229
C          11.32228         3.47863         6.54491
N          12.33406         3.85200         7.25384
C          12.84640         3.37757         6.04856
C          11.62458         2.91790         4.74666
C           9.97809         2.46092         3.28801
C           8.33797         1.93546         2.24238
H           0.72862        -0.45165        -0.95491
H           0.67366         1.03113        -0.01597
H           0.68858        -0.56604         0.78720
H           3.01543         0.58813        -0.94588
H           3.06553        -0.98991        -0.07185
H           5.79574         0.06711         1.13172
H           4.27555         1.70114         3.02945
H           7.13608         0.44192         2.61433
H           5.94385         2.46070         4.69330
H           8.59708         1.38546         3.98761
H           7.76012         3.20723         6.20314
H          10.13668         2.20107         5.19527
H           9.69775         3.91145         7.74514
H          12.52171         4.33632         8.47626
H          14.08603         3.54799         6.71884
H          11.23110         2.15033         3.22082
H           7.79670         1.96354         1.05712

