%chk=CCqCqdSrNdOrCqOrCdCdNN.chk
%NProcShared=20
# opt freq b3lyp/6-31g(2df,p)

Title Card Required 

0  1
C           1.06979         0.04986        -0.07004
C           2.61213         0.01421        -0.11820
C           3.07327        -1.45753        -0.29773
S           3.93873        -2.01032        -1.64383
N           2.73788        -2.37349         0.73151
O           3.09366        -3.54750         0.57049
C           3.12521         1.00338        -1.19282
O           2.56877         2.29636        -0.95171
C           4.61898         1.15143        -1.24940
C           5.27528         1.76236        -2.19266
N           5.93520         2.35954        -2.96259
N           5.65275         2.18439        -4.24888
H           0.67502        -0.57793         0.73645
H           0.64975        -0.31738        -1.01190
H           0.68620         1.06179         0.10300
H           2.95504         0.36236         0.87047
H           2.74737         0.68052        -2.17021
H           2.95606         2.65500        -0.13519
H           5.21259         0.57487        -0.54536
H           6.19295         2.71251        -4.92525
H           5.00844         1.48212        -4.59148

