%chk=CCqCrC1dCNdCCdC[SH]1CqSrNdN.chk
%NProcShared=20
# opt freq b3lyp/6-31g(2df,p)

Title Card Required 

0  1
C           1.08826         0.21549         0.12703
C           2.64649         0.12833         0.11493
C           3.14193         1.11429         1.16128
C           3.17433        -1.31098         0.29029
C           4.32006        -1.61702         0.92264
N           4.96287        -2.74933         1.29379
C           4.57765        -3.96584         1.12945
C           3.42871        -4.62638         0.51159
C           2.38070        -4.10919        -0.11428
S           2.09299        -2.47530        -0.32301
C           1.96684        -2.19102        -2.11072
S           0.55299        -3.17347        -2.75925
N           1.92136        -0.74657        -2.43726
N           1.78297        -0.41710        -3.62668
H           0.74191         1.22721        -0.09371
H           0.69298        -0.10802         1.09480
H           0.57814        -0.40989        -0.61280
H           3.02364         0.49893        -0.84726
H           2.81609         0.79773         2.15589
H           2.73695         2.10957         0.95448
H           4.23046         1.20298         1.14629
H           4.92304        -0.77060         1.25440
H           5.27691        -4.70647         1.55537
H           3.45528        -5.70864         0.58461
H           1.61012        -4.77541        -0.48438
H           0.94486        -2.24717         0.33875
H           2.90045        -2.59250        -2.51717
H          -0.37195        -2.56429        -2.00482
H           1.71564         0.60983        -3.70579

