%chk=CCqCrdCC1dCNdCCdNCdC1CNNS.chk
%NProcShared=20
# opt freq b3lyp/6-31g(2df,p)

Title Card Required 

0  1
C           0.97842         0.09100         0.02813
C           2.48213         0.14315         0.00675
C           3.11870         1.15457        -0.90124
C           3.19912        -0.73282         0.73655
C           4.66366        -0.82592         0.79507
C           5.42303         0.27528         0.99957
N           6.79930         0.35574         0.97161
C           7.39152         0.04310        -0.13636
C           6.71777        -0.40429        -1.40642
N           6.13725        -1.55117        -1.57678
C           6.05250        -2.38303        -0.48100
C           5.35492        -2.11904         0.64534
C           5.34069        -3.08357         1.82633
N           4.57792        -2.59680         2.99112
N           4.57406        -3.53670         4.06583
S           3.70458        -2.89544         5.33025
H           0.54009         0.86481        -0.60925
H           0.59942         0.25199         1.04305
H           0.61569        -0.87668        -0.33535
H           2.38131         1.71545        -1.47793
H           3.78697         0.65682        -1.61182
H           3.68385         1.89262        -0.32724
H           2.64569        -1.49111         1.28363
H           4.94438         1.22434         1.22483
H           8.49016         0.09421        -0.21163
H           6.77205         0.32607        -2.23104
H           6.58436        -3.32595        -0.58696
H           6.38096        -3.25250         2.13608
H           4.92908        -4.04319         1.48865
H           3.61823        -2.44584         2.69385
H           5.52938        -3.71537         4.39030
H           2.50418        -2.74602         4.74623

