%chk=CCqCrCCCdCCdC1CdCC2dCCdCC12S.chk
%NProcShared=20
# opt freq b3lyp/6-31g(2df,p)

Title Card Required 

0  1
C           0.97120         0.03977        -0.01849
C           2.51933         0.05005         0.01647
C           2.97168         1.50902        -0.06360
C           3.10111        -0.68227         1.29880
C           4.71737        -0.74594         1.43638
C           5.47758        -1.34574         2.81729
C           6.83649        -1.29588         3.24724
C           7.62484        -1.87615         4.69221
C           8.97089        -2.09315         5.42786
C           8.57370        -3.51340         5.30631
C           9.69869        -4.17371         5.06106
C          10.03875        -4.12032         6.39509
C           9.82481        -5.13301         7.29341
C          10.77204        -4.87430         8.26617
C          11.26514        -3.66957         7.89046
C          10.45654        -2.64635         6.60789
S          10.54828        -1.36548         7.99342
H           0.58541         0.54275        -0.91863
H           0.54849         0.56592         0.84490
H           0.57308        -0.97950        -0.02617
H           2.85878        -0.46998        -0.88986
H           2.62566         2.06745         0.81268
H           2.57282         2.00839        -0.95588
H           4.05889         1.58038        -0.11674
H           2.68459        -1.69950         1.28749
H           2.67803        -0.17416         2.17259
H           5.04355         0.29369         1.34387
H           5.04616        -1.27607         0.52840
H           4.68085        -1.78661         3.42452
H           7.50433        -0.97742         2.44312
H           6.78981        -2.57829         4.89897
H           7.89026        -3.77602         6.14412
H          10.48362        -3.65737         4.46251
H           9.33656        -6.05107         7.06092
H          11.18118        -5.66588         8.89859
H          12.26644        -3.48458         8.30997
H          11.85603        -1.56723         8.42749

