%chk=CCqdOrC1d[SH]CdNCdCNdC1CO.chk
%NProcShared=20
# opt freq b3lyp/6-31g(2df,p)

Title Card Required 

0  1
C           1.01013        -0.01659        -0.01190
C           2.50779        -0.03072         0.06473
O           3.14863         0.20105         1.07249
C           3.23646        -0.28809        -1.22427
S           2.60010         0.64711        -2.64977
C           3.68633         0.01493        -3.92535
N           3.66669        -1.19081        -4.39453
C           2.87956        -2.12433        -3.76753
C           3.21862        -2.69544        -2.59801
N           4.36306        -2.37733        -1.91045
C           4.41421        -1.22148        -1.31458
C           5.71893        -0.75478        -0.67273
O           5.71951         0.55028        -0.13536
H           0.60103         0.18583         0.97921
H           0.65373        -0.98577        -0.36704
H           0.66880         0.77832        -0.68016
H           3.11761         1.82264        -2.38190
H           4.38639         0.74209        -4.36558
H           1.97119        -2.42856        -4.28210
H           2.59992        -3.48259        -2.17507
H           6.51498        -0.80376        -1.42425
H           5.97809        -1.45585         0.12742
H           5.47796         1.17775        -0.83318

