%chk=CCqOrC1dCCdCCdCCdNNdCSCdCCdC1.chk
%NProcShared=20
# opt freq b3lyp/6-31g(2df,p)

Title Card Required 

0  1
C           1.77303         0.34478        -0.26223
C           3.90133         1.32335        -1.09509
O           3.27834        -0.78966        -0.59923
C           5.68956         2.98129        -2.46135
C           4.85617         1.57617        -1.29165
C           5.15690         2.51964        -2.07092
C           7.04850         2.42945        -1.99557
C           7.21919         3.40637        -2.80505
C           8.51445         3.51337        -2.89426
C           8.78771         5.03157        -4.15068
N           9.98811         4.74794        -3.91685
N          10.30823         6.63600        -5.48108
C          11.37985         5.68037        -4.69227
S          11.70991         7.74108        -6.39688
C          13.36100         7.77720        -6.42704
C          11.85550         6.91247        -5.71037
C           9.71165         5.78146        -4.77411
C           7.61994         4.52400        -3.73502
H           0.81496        -0.75111         0.63548
H           0.77060        -0.16063        -0.99050
H           0.77054         0.95929         0.36036
H           3.22600         0.47290         0.51633
H           2.77826        -1.39297        -1.34432
H           5.21484         0.67521        -0.54396
H           4.36218         3.34203        -2.75219
H           7.05614         1.78957        -1.46687
H           6.31113         4.64796        -3.83427
H           9.10198         3.07348        -2.53041
H           7.98214         5.69220        -4.69939
H          12.45783         5.62605        -4.64423
H          14.41414         6.96308        -5.75220
H          13.22318         8.06980        -6.66881
H          11.61344         6.51658        -5.38118
H           5.95132         3.92759        -3.23752

