%chk=Cd[SH]C1dCCqCCrdCCdCCdCdCC1.chk
%NProcShared=20
# opt freq b3lyp/6-31g(2df,p)

Title Card Required 

0  1
C           1.15891         0.23862        -0.00784
S           3.08627         0.69576        -0.32770
C           4.19718         2.65622        -0.99252
C           5.04573         1.79442        -0.55386
C           5.37758         3.15924        -0.56563
C           3.99640         4.82025        -1.30947
C           2.49229         4.20518        -1.30472
C           6.67987         3.05576        -0.72479
C           7.03489         4.37115        -0.75780
C           8.28351         4.30299        -1.11199
C           7.59221         6.06285        -1.75885
C           8.74683         6.31677        -2.06930
C           7.28159         5.49145        -2.36821
C           5.41837         4.13880        -1.93031
H           0.61565        -0.76430         0.30575
H           0.47654         1.02287        -0.26026
H           3.21796        -0.65276        -0.80493
H           5.40116         0.89001        -0.17645
H           4.03081         4.93533        -2.52045
H           4.18111         5.52516        -0.53948
H           2.63801         3.40800        -2.26165
H           1.67080         4.87226        -1.50755
H           2.53382         3.92009        -0.13837
H           7.42295         2.35396        -0.73878
H           6.08145         5.47782        -1.16871
H           9.33486         4.36260        -1.37785
H           7.96114         7.30300        -2.25427
H           8.92327         5.51273        -2.10529
H           4.32791         3.37128        -2.20951
H           4.29658         3.83717        -0.62238

