%chk=CdC1CdCCdCCdCC2dCCqdC2CCCqCrdOrCdC1.chk
%NProcShared=20
# opt freq b3lyp/6-31g(2df,p)

Title Card Required 

0  1
C           4.80240        -1.72917         0.79525
C           7.45103        -2.67075         1.21012
C           4.89629        -1.91813         0.87854
C           5.97256        -1.24323         0.58118
C           5.42818        -2.86803         1.29715
C           6.86522        -3.63500         1.63519
C           7.65145        -4.17116         1.87137
C           8.72653        -4.17098         1.87124
C           9.40262        -5.27887         2.35889
C          11.31198        -5.31628         2.37526
C          11.67045        -6.07126         2.70862
C           8.79005        -6.07126         2.70862
C           7.27005        -6.07126         2.70862
C           6.75836        -7.37700         3.28409
C           5.23700        -7.39249         3.29082
C           4.48413        -6.18491         2.75870
O           4.61439        -8.37940         3.72569
C          13.19045        -6.07126         2.70862
C          10.57638        -4.39357         1.96937
H           2.49754        -1.11196         0.52332
H           2.78525        -0.51563         0.26054
H           2.84936        -2.09581         0.95685
H           5.13835        -0.38749         0.20409
H           4.70254        -3.38378         1.52439
H           8.22826        -1.99480         0.91237
H           6.85797        -4.49847         2.01557
H           9.70325        -2.77113         1.25442
H          11.67903        -4.02066         1.80502
H           6.91027        -5.98292         1.69617
H           6.91027        -5.26456         3.32675
H           7.12074        -7.49317         4.29450
H           7.12074        -8.20113         2.68784
H           5.17141        -5.43065         2.42634
H           3.86587        -5.77201         3.53641
H           3.86587        -6.48023         1.92918
H          14.17832        -6.35983         2.83706
H           8.83525        -3.07822         1.38983

