%chk=CdC1CdC2CdCCdCN1CqdOrCNCONN2.chk
%NProcShared=20
# opt freq b3lyp/6-31g(2df,p)

Title Card Required 

0  1
C           2.43516        -0.72766        -0.07534
C           4.09033        -0.91407        -0.53316
C           3.46197         0.75716        -0.58937
C           4.52191         1.39481        -0.39911
C           4.97922         2.62602        -0.87935
C           6.28547         2.64998        -0.98638
C           7.43576         1.66716        -0.81669
C           7.21314         0.00861        -0.35635
N           5.97650        -1.38693        -0.07910
C           6.28047        -3.00624         1.17715
O           7.00930        -4.16623         1.46231
C           5.13327        -4.61896         1.60849
N           4.90778        -4.25274         0.32421
C           4.05587        -3.24041         1.01102
O           4.57935        -1.98262         1.06163
N           4.82767        -0.51909         1.66362
N           5.26098         0.62053         0.46857
H           1.51758         0.30119        -0.27142
H           1.21798        -1.04309         0.16418
H           2.64864         1.56924        -0.74940
H           4.49485         3.49779        -1.22346
H           6.41096         1.74162        -0.49620
H           7.45120         3.02631        -1.12052
H           8.37319         0.68647        -0.28243
H           4.43840        -4.97897         2.54727
H           4.53091        -5.61777         1.02567
H           5.94535        -4.45105         0.09722
H           3.79193        -3.16340         2.06428
H           3.56756        -3.51169         0.10525
H           3.85627        -0.48653         1.61226
H           5.64598        -0.04509        -0.24170

