%chk=CdC1Cd[SH]CdCCdC2CdCCdCCdC2C1.chk
%NProcShared=20
# opt freq b3lyp/6-31g(2df,p)

Title Card Required 

0  1
C           2.08503        -0.01363        -0.11136
C           3.75955         0.02341        -0.30006
C           3.16983        -0.41580        -1.55622
S           4.17710        -1.73922        -1.89272
C           4.62484        -0.96106        -3.37751
C           5.87939        -0.98297        -3.47960
C           6.75327        -1.15480        -4.44151
C           7.87791        -0.96169        -3.81897
C           8.65954        -1.44045        -5.43828
C           9.80949        -1.65091        -6.16074
C          10.89425        -1.44129        -5.31451
C          10.60097        -1.06740        -3.92670
C           9.27359        -0.66092        -2.53607
C           7.65661        -0.41890        -1.98753
C           5.79224        -0.01459        -0.73236
H           1.05016        -0.26547        -0.78716
H           1.16664         0.13774         0.76847
H           2.20766        -0.50572        -2.11742
H           4.97234        -1.71548        -0.79282
H           4.14520        -1.08590        -4.27708
H           6.12150        -0.86510        -2.51223
H           6.48518        -1.46835        -5.41401
H           7.98393        -1.69373        -6.31761
H          10.01448        -1.95332        -7.29126
H          11.90156        -1.64038        -6.02350
H          11.76405        -1.04568        -3.77206
H          10.29833        -0.60730        -2.09366
H           5.45479         0.95548         0.07178
H           5.53096        -0.59706         0.45008

