%chk=CdC1CdCCdCCdCCdCCdC2CdC12.chk
%NProcShared=20
# opt freq b3lyp/6-31g(2df,p)

Title Card Required 

0  1
C           4.55495         1.55060         0.45534
C           6.71836         2.12910         0.63678
C           4.60742         1.91279         0.56873
C           6.09270         1.22302         0.34902
C           5.38493         3.12317         0.95430
C           7.00185         3.50683         1.07652
C           7.26169         4.67572         1.44887
C           7.50625         3.49654         1.07324
C           8.71855         5.01074         1.55559
C          10.46967         3.97595         1.22596
C          11.02693         5.57009         1.73377
C          10.83528         4.36602         1.35021
C          10.22003         5.38532         1.67491
C           8.88709         3.54543         1.08881
H           3.15080         0.56328         0.13886
H           2.86455         1.05800         0.29537
H           2.98248         2.23105         0.67012
H           5.25063         0.16684         0.01257
H           4.52588         3.62381         1.11378
H           7.90859         1.94782         0.57990
H           6.44682         5.00262         1.55300
H           8.91938         2.36554         0.71296
H           8.77869         6.07218         1.89371
H          11.59625         3.24892         0.99436
H          10.93130         7.11975         2.22741
H          11.85809         6.42393         2.00576

