%chk=CdC1CdCCdCCdCCdCCdCCdCSSN1.chk
%NProcShared=20
# opt freq b3lyp/6-31g(2df,p)

Title Card Required 

0  1
C           3.52259         0.84707         0.05803
C           5.54246         1.44267         0.01911
C           3.58263         1.72710        -0.05316
C           5.05665         1.37467        -0.06875
C           5.03379         3.22146        -0.22025
C           6.25326         3.33132        -0.18653
C           7.09578         4.25998        -0.23048
C           8.33052         4.23480        -0.23501
C           9.02230         5.48862        -0.32215
C          10.49163         5.63991        -0.33351
C          10.61466         6.99304        -0.40732
C          11.37842         5.97796        -0.32162
C          12.97485         7.39933        -0.44835
C          14.64145         7.19599        -0.41910
S          13.01276         5.63671        -0.48656
S          10.30855         3.57065        -0.16686
N           7.83919         2.24054        -0.01539
H           1.82526         0.94463        -0.00503
H           2.07937        -0.00835         0.07341
H           2.64876         2.47108        -0.10708
H           5.20116        -0.03826         0.03449
H           4.41042         3.95286        -0.20718
H           6.52463         2.35046        -0.16948
H           6.73958         5.13536        -0.29689
H           8.93311         2.97715        -0.15714
H           8.76749         6.46858        -0.39049
H          11.53303         4.45694        -0.26043
H          11.06699         7.84422        -0.48826
H          12.56384         4.45822        -0.16032
H          13.08982         8.87347        -0.55874
H          15.86925         6.38826        -0.38388
H           7.30324         0.99435        -0.01572

