%chk=CdC1C2dCNdCCqdOrC1CCdCC2.chk
%NProcShared=20
# opt freq b3lyp/6-31g(2df,p)

Title Card Required 

0  1
C           1.61168        -0.21231        -0.03461
C           2.95717        -0.35075         0.23669
C           3.08738        -1.74305        -0.58899
C           4.19826        -2.02917        -1.38047
N           4.72700        -1.29464        -2.39454
C           5.06220        -0.12706        -2.00474
C           4.95395         0.33040        -0.54358
O           4.79730         1.55344        -0.49523
C           4.41944        -0.77304         0.75616
C           4.92401        -2.48799         1.40119
C           3.98608        -3.84350         1.56666
C           3.26988        -3.99154         0.45300
C           2.49879        -2.71560         0.42744
H           0.83918        -0.96522        -0.08661
H           1.13708         0.77662        -0.05965
H           5.08164        -2.48095        -0.90741
H           5.31585         0.63461        -2.78002
H           4.61521        -0.14728         1.61867
H           5.52005        -2.49965         2.33215
H           5.65804        -2.96227         0.73123
H           3.36755        -4.12686         2.44321
H           3.90899        -4.09891        -0.43150
H           2.58058        -2.22049         1.44057
H           1.43099        -2.85700         0.36946

