%chk=Cdc1cc2c3cqc1rCd3CdCC2.chk
%NProcShared=20
# opt freq b3lyp/6-31g(2df,p)

Title Card Required 

0  1
C           1.11668         0.06144        -0.00691
C           2.45668        -0.01765        -0.00393
C           2.99469        -1.36622        -0.00314
C           4.31980        -1.45073        -0.00812
C           5.01570        -0.24671        -0.00775
C           4.77993         1.08613        -0.00693
C           3.41447         1.14902        -0.00546
C           6.22323         0.22313        -0.01063
C           7.03768        -1.03442        -0.00368
C           6.58831        -2.31736        -0.00904
C           5.13014        -2.66768        -0.03036
H           0.52289        -0.85530        -0.00766
H           0.55896         0.98539        -0.00935
H           2.38659        -2.25690        -0.00932
H           2.91974         2.11997        -0.00599
H           8.12244        -0.91384         0.00029
H           7.25501        -3.17520        -0.00577
H           4.86722        -3.26735         0.84488
H           4.89224        -3.20986        -0.94943

