%chk=CdCCOC1dCCdCCdNCdCCdCCdC1.chk
%NProcShared=20
# opt freq b3lyp/6-31g(2df,p)

Title Card Required 

0  1
C           1.06310        -0.07737         0.05560
C           2.44497        -0.08451         0.02950
C           3.67806        -0.48560        -1.43655
O           5.69396        -0.68929        -2.18141
C           7.47415        -1.03845        -3.45464
C           7.06791        -0.59869        -1.84947
C           8.07421        -0.84268        -2.74389
C           9.29144        -0.76370        -2.45464
C          10.43365        -0.95676        -3.16020
N          11.55005        -0.85624        -2.79244
C          11.94807        -1.17237        -3.91908
C          13.41222        -1.12699        -3.77970
C          12.92082        -1.43890        -4.93953
C          14.12740        -1.52513        -5.25232
C          11.85310        -1.56935        -5.42797
C           9.65883        -1.38085        -4.74099
H           0.48790         0.16638         0.94696
H           0.48367        -0.31638        -0.81845
H           2.91439         0.16726         0.95016
H           2.93839         0.27382        -2.00874
H           2.93839        -1.43016        -1.54277
H           7.19614        -0.30647        -0.78279
H           8.65937        -1.13963        -3.83046
H           9.49684        -0.51876        -1.55848
H          10.81657        -1.30200        -4.42294
H          10.73872        -1.60274        -5.47268
H          14.18958        -0.95989        -3.17209
H          13.43504        -1.91555        -6.68343
H          15.68505        -1.33781        -4.55506
H          13.77489        -1.67685        -5.76407
H           7.98453        -1.43113        -4.90420

