%chk=CdCCNCCd[SH]qdOrCdCqOrOC.chk
%NProcShared=20
# opt freq b3lyp/6-31g(2df,p)

Title Card Required 

0  1
C           1.02787         0.07507        -0.07834
C           2.36770         0.06973        -0.05502
C           3.14791         0.10580         1.21863
N           4.58847         0.10454         0.95513
C           5.28298         0.11740         2.23323
C           6.76627         0.12747         2.01442
S           7.99079         0.34278         3.24436
O           7.83688        -0.90769         3.95332
C           9.55975         0.13111         2.63455
C          10.62163         0.18046         3.45575
O          10.51478         0.29416         4.82631
O          11.87529         0.14009         2.87034
C          12.95838         0.17647         3.79513
H           0.48626         0.03998        -1.01757
H           0.44691         0.10327         0.83905
H           2.91248         0.02466        -0.99438
H           2.88133        -0.77165         1.82101
H           2.87676         1.00925         1.77977
H           4.81950         0.94579         0.42966
H           5.04417        -0.76554         2.83508
H           5.04090         1.01702         2.80990
H           7.12880        -0.00800         0.98097
H           7.77789         1.37293         4.07870
H           9.70393         0.03773         1.56667
H           9.61675         0.01786         5.08980
H          13.88880         0.16098         3.21853
H          12.95027        -0.70436         4.44547
H          12.94765         1.09823         4.38678

