%chk=CdCC1qCqCrOrC2dCCdCNdCOC1C2.chk
%NProcShared=20
# opt freq b3lyp/6-31g(2df,p)

Title Card Required 

0  1
C           1.01563         0.08560        -0.10105
C           2.34420         0.32623        -0.14810
C           3.37309        -0.77431        -0.42062
C           3.39252        -0.89521        -1.95368
C           4.12666         0.38352        -2.38879
O           4.03907        -2.05236        -2.47534
C           4.87405        -1.36165         0.28290
C           5.97755        -0.84842         0.86151
C           6.13998         0.51080         0.56709
C           6.20018         1.39344         1.60699
N           5.05593         2.09108         1.69516
C           4.03461         1.33352         2.10528
O           3.70679        -0.11621         2.25281
C           3.20182        -1.28649         1.13504
C           4.15016        -2.59129         0.66145
H           0.34867         0.88805         0.20587
H           0.53669        -0.87812        -0.28779
H           2.70536         1.31956         0.04855
H           2.38361        -0.89834        -2.39175
H           5.15515         0.34262        -2.02644
H           3.66773         1.27639        -1.94360
H           4.16743         0.53727        -3.46149
H           4.97673        -2.02077        -2.22241
H           6.28531        -1.32158         1.81064
H           5.41644         0.86241        -0.15153
H           6.69974         1.19675         2.54027
H           3.64412         1.88292         2.97579
H           2.20725        -1.66902         1.40985
H           4.10590        -3.21571        -0.26076
H           4.49632        -3.28838         1.42984

