%chk=CdCC1dCdCqCrNdCONdCCdC1.chk
%NProcShared=20
# opt freq b3lyp/6-31g(2df,p)

Title Card Required 

0  1
C           1.70893         0.41668        -0.20489
C           3.05867         0.54080        -0.62258
C           4.38561         1.73896        -0.77247
C           5.03390         1.31584         0.32036
C           6.09210         0.74196         0.54517
C           6.80925         0.79004         1.81049
N           6.71549         0.24244        -0.56836
C           7.89842         0.64783        -0.78491
O           8.37843         0.36128        -1.99590
N           9.45017         1.14943        -2.33687
C           8.86363         2.19932        -2.81994
C           7.35932         2.80740        -2.06229
C           5.86897         2.63933        -1.49652
H           1.18329        -0.59066        -0.05175
H           0.88104         1.09454         0.06197
H           3.42901        -0.48604        -0.37239
H           6.04023         0.65878         2.56483
H           7.32523         1.74889         1.90620
H           7.47697        -0.05815         1.71676
H           8.54009         1.29932        -0.14725
H           9.51654         2.79120        -3.54845
H           8.26647         3.42458        -1.51633
H           5.58038         3.48747        -0.83951

