%chk=CdCCqdOrC1dCCdCdNCdCCdCCdC1.chk
%NProcShared=20
# opt freq b3lyp/6-31g(2df,p)

Title Card Required 

0  1
C           1.29555         0.04323         0.09972
C           2.85563         0.05139         0.33413
C           4.26757        -0.64232         1.63922
O           3.15823        -1.42396         1.89355
C           6.16810        -0.63056         2.61023
C           5.67534        -1.75488         1.99499
C           6.94127        -2.15200         1.62835
C           7.49505        -2.86794         2.55965
N           7.94195        -3.63740         3.33017
C           8.81616        -3.20916         4.19940
C           9.49544        -3.56125         5.27280
C           9.77232        -2.44266         6.44291
C          10.80555        -2.56630         5.68239
C           9.69523        -1.19104         4.54959
C           8.07839        -0.81358         3.66288
H           0.59605         0.66916        -0.64917
H           0.53714        -0.52019         0.69544
H           3.03816         0.68736        -0.59331
H           4.85171        -2.29904         2.57274
H           7.49284        -1.35776         1.02353
H           8.92017        -2.31612         3.78858
H           9.65092        -4.60062         5.39862
H          10.40786        -1.20291         6.42059
H          11.18980        -3.79909         6.54363
H          11.02493        -1.81916         5.14703
H           7.81085        -0.17660         2.49515

