%chk=CdCC1dCCdCNdC[C]qNrNCdC1N.chk
%NProcShared=20
# opt freq b3lyp/6-31g(2df,p)

Title Card Required 

0  2
C           1.38893        -0.30495        -0.10708
C           2.78298        -0.71032        -0.34065
C           4.07809        -1.93637        -1.13435
C           4.99815        -1.14707        -0.76982
C           5.96599        -1.67896        -1.50312
C           7.11033        -1.69232        -0.96598
N           7.74880        -2.39038        -1.77205
C           8.88983        -2.42396        -2.23230
C           8.74063        -3.20636        -3.45983
N           9.02793        -3.93482        -4.64573
N           8.51229        -4.21987        -2.53799
C           6.63524        -4.32554        -2.42774
C           4.91322        -3.48668        -1.98045
N           3.16672        -3.21833        -2.06274
H           0.78028         0.58717         0.52773
H           0.51226        -0.80618        -0.48347
H           3.13936         0.33241         0.36263
H           5.03808        -0.31092        -0.14833
H           6.13643        -2.32600        -2.42825
H           7.47849        -0.90446        -0.47985
H           9.67586        -2.19298        -1.56538
H           8.08986        -4.37253        -4.74471
H           9.58840        -4.79562        -4.81539
H           9.88483        -3.80268        -2.37761
H           7.91921        -4.85976        -2.61260
H           2.09435        -3.28280        -2.25643
H           2.47915        -2.32496        -1.53579

