%chk=CdCCNdCCdCCqCrNdC1NC1dCCCCCC.chk
%NProcShared=20
# opt freq b3lyp/6-31g(2df,p)

Title Card Required 

0  1
C           1.02392        -0.03309         0.08531
C           2.36566         0.00233         0.08559
C           3.16783         1.27717         0.10463
N           4.60058         0.94926         0.10373
C           5.40698         1.95789         0.12378
C           6.88640         1.75779         0.13361
C           7.80740         2.74505         0.14613
C           9.31774         2.48368         0.11610
C           9.67009         1.69223        -1.14422
N          10.06191         3.75970         0.13557
C          11.29788         3.71878         0.15705
N          12.50087         3.15667         0.16371
C          12.54802         4.47370         0.16681
C          13.23690         5.59698         0.16965
C          12.56822         6.94517         0.18647
C          13.55467         8.12138         0.20453
C          12.81124         9.45957         0.22333
C          13.78485        10.63614         0.24047
C          13.03461        11.95689         0.25883
H           0.48474        -0.97670         0.07139
H           0.43222         0.87685         0.09894
H           2.91291        -0.93790         0.07174
H           2.90531         1.84162         1.00739
H           2.90731         1.86801        -0.78166
H           5.05559         3.00471         0.13295
H           7.18608         0.71382         0.11718
H           7.48922         3.78490         0.15734
H           9.57522         1.90824         1.01508
H           9.41324         2.26052        -2.04549
H           9.13568         0.73757        -1.17959
H          10.73755         1.46032        -1.18558
H          13.06298         2.33809         0.11520
H          14.32418         5.57353         0.16962
H          11.92842         7.01374         1.07463
H          11.92933         7.03833        -0.69962
H          14.20476         8.08235        -0.67848
H          14.20365         8.05707         1.08697
H          12.16204         9.51060         1.10632
H          12.16279         9.53566        -0.65839
H          14.43271        10.59913        -0.64304
H          14.43191        10.57411         1.12316
H          12.39937        12.05467        -0.62735
H          13.73744        12.79506         0.27101
H          12.39858        12.02955         1.14687

