%chk=CdCC1CdCNdC2CC1dCdCSN2.chk
%NProcShared=20
# opt freq b3lyp/6-31g(2df,p)

Title Card Required 

0  1
C           0.85339        -0.09762         0.13067
C           2.14020        -0.44039         0.19068
C           2.95084        -0.49698        -1.03870
C           4.38735         0.04873        -0.80804
C           5.52491        -0.61162        -0.94324
N           5.63298        -1.95011        -1.21094
C           4.85488        -2.48485        -2.10759
C           3.76577        -1.68420        -2.92230
C           2.82298        -1.90098        -1.75235
C           2.41030        -3.16922        -1.54085
C           2.52945        -4.45781        -1.86878
S           3.84323        -4.78728        -3.01697
N           4.95305        -3.87413        -2.16281
H           0.20082        -0.35958         0.95076
H           0.41093         0.31199        -0.77851
H           2.61027        -0.85409         1.07664
H           2.54908         0.25442        -1.74977
H           4.49829         1.10896        -0.53392
H           6.49224        -0.13673        -0.74766
H           2.82579        -1.83171        -3.50256
H           4.13089        -2.08917        -3.86788
H           2.45643        -5.34403        -1.23292
H           5.06994        -4.17452        -1.18822

