%chk=CdCc1cccc2cqd[SH]NNrc12.chk
%NProcShared=20
# opt freq b3lyp/6-31g(2df,p)

Title Card Required 

0  1
C           0.99990        -0.38905         0.35850
C           2.32488        -0.22898         0.27823
C           3.03190        -0.59533        -0.93497
C           4.11596        -1.43419        -0.93890
C           4.52118        -1.89145        -2.17863
C           3.96362        -1.28451        -3.35850
C           2.92361        -0.34175        -3.46775
C           1.47042         0.34602        -2.77916
S           1.04617         1.96823        -2.03484
N          -0.57280         1.61603        -1.85876
N          -1.28754         2.28045        -0.80092
C           2.58661        -0.19151        -2.18546
H           0.43923         0.03212         1.18142
H           0.42317        -0.83078        -0.45573
H           2.89826         0.27339         1.04683
H           4.58254        -1.77595        -0.02328
H           5.27343        -2.67816        -2.24461
H           4.47639        -1.59145        -4.28125
H           1.39935         1.81791        -0.77230
H          -1.16706         1.38867        -2.66069
H          -0.72266         2.87308        -0.18886
H          -1.72587         1.58790        -0.18570

