%chk=CdCC1CCSCCqdSr[SH]qCSrS1.chk
%NProcShared=20
# opt freq b3lyp/6-31g(2df,p)

Title Card Required 

0  1
C           0.80516         0.03147         0.21333
C           2.14210        -0.07976         0.16339
C           2.90242        -0.90446        -0.83066
C           2.05147        -1.79832        -1.76052
C           2.71549        -2.98576        -2.46271
S           3.70408        -4.02306        -1.33316
C           5.39835        -3.61740        -1.86577
C           5.75032        -2.14783        -1.68268
S           6.68223        -1.66864        -0.35941
S           5.20577        -0.84248        -2.76087
C           6.51492         0.13813        -3.35065
S           5.92877         1.32583        -4.59570
S           3.81841         0.33277        -1.80560
H           0.33309         0.68294         0.93188
H           0.17187        -0.50268        -0.48199
H           2.74837         0.48936         0.86800
H           3.60100        -1.50317        -0.24265
H           1.56055        -1.17874        -2.52511
H           1.24121        -2.24268        -1.17135
H           3.28135        -2.69807        -3.34793
H           1.91436        -3.62270        -2.85870
H           5.46077        -3.82049        -2.93721
H           6.09653        -4.27409        -1.34250
H           4.63186        -1.42175        -3.82340
H           7.23507        -0.53660        -3.81453
H           6.96709         0.66870        -2.51252
H           5.14361         0.47951        -5.28244

