%chk=CdCNC1dNCCdCC2dCCdNNCCdCdC21.chk
%NProcShared=20
# opt freq b3lyp/6-31g(2df,p)

Title Card Required 

0  1
C           1.08554        -0.03980         0.00528
C           2.41430        -0.21142         0.09380
N           2.97432        -0.92174         1.14376
C           4.30551        -1.11195         1.48560
N           4.99563        -0.09306         1.09088
C           6.22914         0.67553         1.11162
C           7.14819         0.23422         2.16044
C           7.02405        -0.84112         2.96628
C           5.90957        -1.80706         3.29706
C           5.74313        -1.72948         4.64699
C           4.39977        -1.90367         5.02485
N           4.13622        -2.63879         6.10283
N           2.87546        -2.99696         6.04671
C           2.84924        -4.42639         6.00091
C           3.15286        -4.53676         4.25757
C           3.82283        -3.58167         3.27061
C           4.69171        -2.51112         2.53768
H           0.60598         0.33945        -0.88740
H           0.45757        -0.36739         0.82332
H           3.06752         0.11266        -0.72274
H           2.40941        -0.84691         1.97628
H           6.02815         1.76168         1.28304
H           6.79223         0.71978         0.15920
H           8.01637         0.90882         2.28285
H           7.84266        -0.83770         3.68605
H           6.38168        -1.27312         5.36226
H           3.59516        -1.61496         4.33332
H           2.34712        -2.81314         5.16836
H           1.88925        -4.43113         6.58309
H           3.50408        -5.00988         6.68976
H           2.24453        -5.17223         4.09587

