%chk=CdCNCdCCC1dCCq[SH]dNrdC1.chk
%NProcShared=20
# opt freq b3lyp/6-31g(2df,p)

Title Card Required 

0  1
C           1.09511         0.03519         0.00185
C           2.42660         0.04947         0.01449
N           3.20628         0.85169         0.78866
C           4.56410         0.88827         0.83063
C           5.25864         1.70376         1.62713
C           6.74016         1.73298         1.67393
C           7.28374         2.75023         2.69980
C           8.67492         2.94372         2.87648
C           9.21190         4.02930         3.86720
S          10.99142         4.26698         4.09720
N          10.80603         5.50466         4.93367
C           6.38000         3.65106         3.50117
H           0.56396        -0.64338        -0.65377
H           0.51735         0.69482         0.63994
H           2.99180        -0.61874        -0.63127
H           2.72421         1.49385         1.41328
H           5.08207         0.20241         0.16813
H           4.70064         2.37247         2.27041
H           7.18411         1.97973         0.69922
H           7.17936         0.75590         1.91368
H           9.43362         2.38257         2.30971
H          11.31350         4.79311         2.93505
H          10.81719         5.21391         5.92073
H           5.43805         4.12600         3.68579

