%chk=CdCqCOOrCqdCrCCqdOrCdS.chk
%NProcShared=20
# opt freq b3lyp/6-31g(2df,p)

Title Card Required 

0  1
C           0.89584         0.00539        -0.00907
C           2.24918        -0.04650         0.03984
C           3.04261         0.90548        -0.85751
O           2.13790         1.72162        -1.62680
O           2.94064         2.60045        -2.45519
C           2.95031        -1.01197         0.94990
C           2.19421        -1.82661         1.71778
C           4.49971        -1.06909         1.00374
C           5.14342        -2.10246         1.97780
O           4.53452        -2.87790         2.70873
C           6.65139        -2.16840         2.03996
S           7.37434        -3.26794         3.07639
H           0.35603         0.68998        -0.65437
H           0.22960        -0.61391         0.57469
H           3.66664         0.34110        -1.55790
H           3.66664         1.57134        -0.25276
H           2.18322         3.04958        -2.87855
H           1.11570        -1.84396         1.73414
H           2.56438        -2.56279         2.41171
H           4.88285        -0.07972         1.28988
H           4.88286        -1.29632        -0.00079
H           7.19715        -1.47727         1.38849

