%chk=CdCSSc1ccc2cqc1rCdCCdCCdC2.chk
%NProcShared=20
# opt freq b3lyp/6-31g(2df,p)

Title Card Required 

0  1
C           1.13890         0.03894        -0.08142
C           2.48415         0.01338        -0.10908
S           3.34330        -1.06366        -1.18747
S           5.38184        -0.61540        -0.93417
C           6.20132        -1.84452        -1.96918
C           6.91098        -1.76399        -3.14915
C           7.39826        -3.10270        -3.85677
C           7.07599        -4.54670        -3.35765
C           6.28412        -4.29763        -2.28623
C           6.09780        -3.13008        -1.54664
C           5.11388        -5.07054        -2.41240
C           4.48263        -5.75210        -1.34976
C           4.15772        -7.15388        -1.81994
C           5.13115        -7.69661        -1.08643
C           6.42204        -7.50342        -2.20540
C           6.96774        -6.40311        -3.23355
H           0.58708         0.70291         0.58336
H           0.52839        -0.59701        -0.71809
H           3.02599         0.67862         0.55770
H           7.13375        -0.72204        -3.46763
H           8.01019        -2.73146        -4.71292
H           5.68084        -3.38460        -0.59803
H           4.92669        -5.53965        -3.34246
H           4.91305        -5.47991        -0.37219
H           4.31278        -7.64240        -2.84043
H           4.78004        -7.43493        -0.03882
H           6.19178        -8.63891        -2.28234
H           6.98223        -6.64304        -4.33032

