%chk=CdCSC1dCCdCqCrSSCSNdCCdC1.chk
%NProcShared=20
# opt freq b3lyp/6-31g(2df,p)

Title Card Required 

0  1
C           1.29746         0.10771         0.00392
C           3.02537         0.18386        -0.05108
S           5.27094         0.90496        -0.57199
C           7.69239         1.36399        -0.90200
C           6.29203         1.96159        -1.33561
C           7.79387         1.96387        -1.33804
C           8.37861         2.89484        -2.01042
C           7.67028         3.78419        -2.65290
S           9.85635         3.26287        -2.27629
S          10.94967         4.39492        -3.09426
C          12.43900         3.87716        -2.72011
S          13.19927         5.13264        -3.62739
N          14.58199         4.58441        -3.23121
C          14.03061         3.26412        -2.27706
C          11.97719         2.29391        -1.57559
C          10.12853         1.60537        -1.07744
H           0.51650        -0.71431         0.59796
H           0.46853         0.74327        -0.45536
H           2.94960        -0.73161         0.61047
H           5.58481         2.69452        -1.86557
H           8.91582         1.10056        -0.71661
H           6.65641         3.66750        -2.56859
H           8.06898         3.53608        -3.60591
H           8.06899         4.61116        -2.11823
H          12.93368         2.53462        -3.22732
H          12.93369         3.93740        -1.28621
H          15.11572         4.33326        -3.04968
H          13.57907         2.54853        -1.76001
H           9.70541         0.37592        -0.18948

