%chk=CdNC1dCCdCCdCCdCCdCCdC1OC.chk
%NProcShared=20
# opt freq b3lyp/6-31g(2df,p)

Title Card Required 

0  1
C           1.49454        -0.21317        -0.25090
N           3.07717        -0.99095        -0.85379
C           4.66631        -2.14887        -1.75219
C           4.59736        -0.95887        -0.82877
C           5.36178        -1.90618        -1.56249
C           6.64419        -1.88121        -1.54308
C           7.53234        -2.65051        -2.13869
C           8.68842        -2.63070        -2.12391
C           9.06050        -3.49158        -2.78698
C          10.62334        -3.54752        -2.83385
C           9.97665        -4.33363        -3.44256
C          10.86757        -4.80747        -3.81191
C           8.45059        -4.49291        -3.57334
C           6.33627        -3.67399        -2.93510
O           3.97685        -3.46445        -2.76395
C           1.73487        -3.00732        -2.41886
H           0.54281         0.78431         0.52191
H           0.46485        -0.66727        -0.60275
H           4.94266        -0.17924        -0.22457
H           5.23131        -3.03240        -2.43574
H           7.04080        -1.18382        -1.00290
H           7.56547        -3.71229        -2.95999
H           9.25475        -2.11599        -1.72513
H           7.45560        -4.58434        -3.63148
H          11.43669        -3.17357        -2.54447
H          10.40650        -5.88817        -4.64744
H          12.60853        -4.49212        -3.56606
H           9.92992        -5.25020        -4.15441
H          -0.07921        -2.82136        -2.27029
H           0.54424        -3.94025        -2.00301
H           0.54362        -2.84075        -3.42319

