%chk=CdNCSNCCdC1CdCCqdSrS1.chk
%NProcShared=20
# opt freq b3lyp/6-31g(2df,p)

Title Card Required 

0  1
C           1.10119         0.04986        -0.03942
N           2.37704         0.08349         0.03570
C           3.13211        -0.35236        -1.14324
S           4.92090        -0.19123        -0.80761
N           5.72890        -0.72646        -2.17407
C           7.19470        -0.70158        -2.02886
C           7.97012        -1.17474        -3.21359
C           9.31256        -1.15867        -3.25990
C          10.22746        -0.73961        -2.22642
C          11.49057        -0.52820        -2.63044
C          11.64799        -0.76614        -4.08377
S          12.93167        -0.29906        -5.03351
S          10.19361        -1.55336        -4.69983
H           0.51061         0.37116         0.83459
H           0.53897        -0.27976        -0.92610
H           2.88065         0.27213        -2.00850
H           2.89978        -1.39619        -1.38475
H           5.48312        -0.15049        -2.98079
H           7.47014        -1.32973        -1.17294
H           7.49916         0.33235        -1.81326
H           7.41310        -1.48646        -4.09202
H           9.91845        -0.58360        -1.20015
H          12.30110        -0.18049        -2.00859

