%chk=CdS1CdNCdCCdCCdCCdCOC1dO.chk
%NProcShared=20
# opt freq b3lyp/6-31g(2df,p)

Title Card Required 

0  1
C           2.22228         0.26170        -0.57071
S           4.37752         0.53968        -1.63986
C           3.48668         1.98750        -1.21960
N           4.58864         2.43762        -0.90863
C           4.99148         3.27586        -1.82782
C           6.29403         3.51456        -1.81004
C           6.73775         4.42721        -2.76844
C           8.00696         4.79177        -2.65754
C           8.46021         5.85518        -3.49913
C           9.81170         5.84322        -3.59390
C           9.73211         5.36611        -4.97151
C           9.25433         3.81029        -4.51162
O           7.83772         2.60048        -3.65691
C           6.43425         1.52910        -2.84630
O           6.75749         0.38655        -2.43531
H           1.24417         0.98712         0.13106
H           1.22764        -0.67416        -0.51579
H           2.44929         2.19777        -1.61713
H           4.26897         3.52503        -2.59666
H           7.05043         2.81011        -1.31791
H           6.08549         4.77553        -3.56209
H           8.79766         4.04365        -2.28065
H           7.88270         6.07878        -4.47616
H          10.63644         5.20022        -3.05753
H           9.78779         6.71799        -5.35871
H          10.64383         4.18513        -4.52765

