%chk=CN1CdCC2dCCdNCdCCdCCdCC2dC1.chk
%NProcShared=20
# opt freq b3lyp/6-31g(2df,p)

Title Card Required 

0  1
C           1.25427        -0.26590         0.06681
N           3.01700        -0.48607         0.17766
C           3.44142         0.84427         0.09194
C           4.72277         0.88635         0.42014
C           5.65631        -0.47343         0.90702
C           6.66361         0.05160         1.53016
C           7.42445        -0.95728         2.08658
N           8.58606        -0.84787         2.55130
C           8.85094        -1.98451         3.19891
C           9.96176        -2.28126         3.81658
C          10.06536        -3.72516         4.31412
C          10.75462        -3.84469         3.18849
C           9.17446        -3.97482         2.08276
C           7.47305        -3.39542         1.37203
C           5.85851        -2.29161         0.92147
C           4.18831        -1.90191         0.40886
H           0.84376         0.84059         0.05296
H           0.74360        -0.64301         0.95754
H           0.77813        -0.64496        -0.85519
H           2.77967         1.80254        -0.18209
H           5.06464         1.95238         0.42507
H           6.90773         1.04649         1.71108
H           6.95609        -1.89041         2.26040
H           8.17962        -2.85696         3.30778
H          10.73525        -1.50902         3.76174
H           9.66248        -4.84164         4.12476
H          11.79446        -3.32281         4.05213
H          10.25612        -4.83918         2.36897
H           6.77047        -3.99368         0.86678
H           3.23693        -2.34971         0.00256

