%chk=Cn1ccc2ccccscd2cnsnn1.chk
%NProcShared=20
# opt freq b3lyp/6-31g(2df,p)

Title Card Required 

0  1
C           1.17220         0.05380        -0.21569
N           2.62630         0.35221        -0.20089
C           3.24589         0.21888         1.03828
C           4.51086        -0.13865         1.28746
C           5.26969         0.34175         2.46130
C           4.84220        -0.27431         3.70645
C           5.27485        -0.18322         4.94907
C           6.35223         0.58942         5.48374
C           7.19245         1.44165         4.91310
S           7.38342         2.01970         3.32396
C           6.24391         1.28325         2.26233
C           6.41894         1.88903         0.84901
N           5.52981         1.59706        -0.02864
S           5.26438         1.96750        -1.56139
N           4.11014         0.82643        -1.98020
N           3.23895         0.10029        -1.42279
H           0.72555         0.18117         0.78182
H           0.95506        -0.98320        -0.51034
H           0.64340         0.73727        -0.88424
H           2.60431         0.54798         1.85466
H           5.10625        -0.50493         0.45466
H           3.99056        -0.94953         3.56512
H           4.75290        -0.79482         5.68822
H           6.48073         0.43011         6.55538
H           7.92085         1.88183         5.59396
H           7.28380         2.56060         0.68472

