%chk=CN1CdCCdCCdCNdCSCdCCdCCdCC1.chk
%NProcShared=20
# opt freq b3lyp/6-31g(2df,p)

Title Card Required 

0  1
C           3.45401        -0.06309         0.72378
N           6.20189        -0.06013         1.49908
C           3.88877        -0.01263         1.35180
C           4.93587        -0.00817         1.66285
C           5.31541         0.08238         2.96287
C           6.67477         0.08836         3.06303
C           7.47516         0.13012         4.03831
C           8.79965         0.15431         4.25272
N           9.48844         0.19084         5.31597
C          10.73708         0.20845         5.39941
S          11.65774         0.26826         6.85888
C          13.16503         0.36278         6.69919
C          14.09465         0.32328         7.65758
C          14.99818         0.39519         7.10531
C          15.94682         0.18964         7.06420
C          13.99530         0.03076         5.30247
C          11.88228        -0.02742         3.98586
C           8.95686        -0.04952         2.52702
H           1.45894        -0.03090         0.99710
H           1.65580        -0.65670        -0.00170
H           1.66196         0.48668        -0.05723
H           2.74477         0.03921         2.27820
H           5.20966        -0.04597         0.16313
H           4.74509         0.10782         3.65294
H           7.20158         0.10045         2.30311
H           6.92535         0.17092         4.88815
H           9.75209         0.15940         3.59918
H          10.68033         0.22076         4.39578
H          13.00548         0.73984         4.96526
H          14.06425         0.35318         8.57901
H          16.02446         0.31490         5.49140
H          16.39569         0.36740         8.94777
H          15.90042         0.04319         6.37695
H          13.62627        -0.11264         4.94282
H           7.69902        -0.38758         1.28944
H           7.73616         0.21338         1.22124

