%chk=CN1CdCCdCCdCCdC2C[C]2C1.chk
%NProcShared=20
# opt freq b3lyp/6-31g(2df,p)

Title Card Required 

0  2
C           1.97416        -0.03867        -0.06338
N           4.02998        -0.08073         0.25080
C           3.29052         0.84340         1.06507
C           4.41655         1.18901         1.36266
C           5.17017         1.81806         2.16519
C           6.42124         1.88568         2.17553
C           7.18597         2.57254         3.03148
C           8.49148         2.60700         2.82973
C           9.39347         3.14585         3.82809
C           9.36440         2.01721         2.90516
C          10.34406         1.51016         2.09704
C           8.28695         0.79668         1.56765
C           6.30136         0.20662         0.53254
H           0.93424         0.59758         0.70404
H           0.97424        -1.02824         0.09968
H           0.98262         0.32225        -1.01835
H           2.50792         1.36458         1.62883
H           4.97442         1.09919         0.53864
H           4.64439         2.32550         2.80525
H           6.81367         1.40478         1.40256
H           6.76459         3.12565         3.78320
H           9.11018         2.17472         1.41812
H           8.93905         3.85765         4.63699
H          11.50064         2.62201         2.25639
H          11.67429         1.73155         2.86347
H           5.50654        -0.87125         0.15185
H           5.58605         0.13764        -0.75714

