%chk=CN1CdCCdCC2dCCdCCdCCdCC2dC1.chk
%NProcShared=20
# opt freq b3lyp/6-31g(2df,p)

Title Card Required 

0  1
C           2.29222        -0.14386         0.28910
N           4.56415        -0.30555         0.92107
C           3.30252        -0.46703         1.55219
C           4.53047        -0.56436         1.93260
C           5.32375        -0.84042         3.01155
C           6.75020        -0.91346         3.29702
C           7.51987        -1.13731         4.17195
C           8.81643        -1.07492         3.92808
C           8.80181        -1.43279         5.32679
C           9.57768        -1.22757         4.52471
C          10.58589        -1.68886         6.32765
C          11.68812        -1.37058         5.08366
C          12.07867        -1.70153         6.37716
C          10.93702        -1.28175         4.73647
C           8.64909        -0.89911         3.24098
C           6.84883        -0.52693         1.78633
H           0.80529        -0.33108         1.02084
H           0.90676        -0.75877        -0.55812
H           0.90676         0.80239        -0.15869
H           2.57277        -0.64500         2.24778
H           5.70552        -0.40739         1.31907
H           4.62938        -0.99903         3.63150
H           8.03813        -0.59683         2.05951
H           9.87523        -0.74917         2.65491
H           8.89359        -1.65565         6.19783
H          11.12953        -0.97336         3.53115
H          10.95592        -1.97784         7.45710
H          13.37996        -1.39038         5.16104
H          12.92972        -2.08993         7.89519
H          12.45672        -1.59994         5.98009
H           5.65499        -0.15077         0.31612

