%chk=CN1CdCCdCCdCSC2dCCdCC2dC1.chk
%NProcShared=20
# opt freq b3lyp/6-31g(2df,p)

Title Card Required 

0  1
C           2.47796        -0.28156         0.05005
N           4.80872        -0.66100         0.08632
C           3.37154        -1.49460         0.04710
C           4.65732        -1.69068         0.03745
C           5.24400        -2.83805         0.03763
C           6.40357        -3.18834         0.03715
C           7.09070        -4.21131         0.04352
C           8.29608        -3.94245        -0.05636
S           9.46912        -5.62013         0.09907
C          10.36937        -4.14714        -0.02986
C          11.79780        -3.60451         0.12043
C          12.93537        -4.22679         0.04732
C          11.04847        -3.94791         0.07284
C           9.17060        -2.40125         0.19117
C           7.20238        -1.36374         0.16125
H           0.96069        -1.07139         0.04385
H           1.05044         0.31344        -0.73945
H           1.04880         0.31289         0.82926
H           2.70680        -2.34454         0.04203
H           5.84247        -1.33029        -0.00668
H           4.74134        -3.65447         0.04083
H           7.24074        -2.84791         0.12529
H           6.84206        -5.09418         0.04659
H           8.09924        -2.23549        -0.33495
H          11.71897        -2.61986         0.03816
H          14.18547        -3.55884         0.03941
H          12.50206        -5.01389         0.05867
H           6.12979        -0.04349         0.07652

