%chk=CN1CdCCdNN2CCdCqCNdN1rCqNrCqdOrCC2.chk
%NProcShared=20
# opt freq b3lyp/6-31g(2df,p)

Title Card Required 

0  1
C           2.58363        -0.43883         0.47420
N           4.30952        -1.44222         0.61104
C           3.74994        -1.66116        -0.63117
C           4.76444        -1.23342        -1.32196
C           5.27280        -2.64054        -1.34939
N           6.54488        -2.77018        -1.45915
N           6.99020        -4.01677        -1.34138
C           7.62010        -4.81535        -0.21230
C           8.94639        -5.38241        -0.56777
C           9.51260        -4.63221        -1.53444
C           9.60174        -3.35145        -0.61404
N           7.94721        -2.35556         0.15680
N           6.36710        -1.71828         0.54826
C           9.57633        -3.91368        -2.84933
N          10.88517        -3.48253        -3.40471
C           8.84557        -4.90116        -3.71839
O           9.12855        -5.12278        -4.89275
C           7.69642        -5.61726        -3.02846
C           6.74789        -4.58015        -2.60991
H           1.55874        -1.16669        -0.05217
H           1.90677         0.36001        -0.41653
H           1.63137        -0.14118         1.25242
H           2.83857        -2.31402        -0.65967
H           5.33331        -0.38311        -0.69376
H           4.61254        -3.51825        -1.07933
H           7.07407        -5.71493        -0.07897
H           7.79510        -4.35237         0.78609
H           9.63484        -5.85583         0.17233
H          10.98804        -3.34286        -0.61669
H          10.52916        -4.45821        -0.91376
H           9.04344        -3.00225        -2.62707
H          11.47051        -4.25887        -3.70044
H          11.42074        -2.88961        -2.77343
H           8.01891        -6.22835        -2.19322
H           7.18494        -6.32154        -3.63631
H           5.74908        -4.92775        -2.42191
H           6.76368        -3.73613        -3.33323

