%chk=CNc1ccccccc2occcc1-2.chk
%NProcShared=20
# opt freq b3lyp/6-31g(2df,p)

Title Card Required 

0  1
C           2.37517        -0.31402         0.36255
N           4.52892        -0.81941         0.67138
C           6.63737        -1.40465         0.84353
C           5.27960        -0.80433         1.35558
C           5.60201        -1.42046         2.51590
C           6.89513        -1.26754         2.75025
C           7.31292        -2.27902         3.54545
C           8.44827        -1.69092         3.76320
C           9.24372        -2.69918         4.21831
C          10.12473        -2.42043         3.32867
O          11.18725        -3.22273         4.74411
C          12.68322        -3.19577         4.75832
C          12.50383        -2.81580         3.31621
C          10.73794        -2.14297         2.24987
C           8.82804        -1.99275         1.74448
H           1.25670         0.42904        -0.53253
H           1.08393         0.37674         1.00714
H           1.02870        -0.99929         0.06549
H           3.79492         0.10417        -0.15839
H           5.66160         0.05797         0.23955
H           4.77109        -1.92854         2.94591
H           7.76628        -0.61500         1.65116
H           6.73097        -2.83181         4.17988
H           8.65757        -0.63584         2.81214
H           9.11908        -3.33152         5.05874
H          13.50101        -3.58446         5.81009
H          13.98872        -3.35259         3.40164
H          12.27360        -1.80834         2.25471

