%chk=CNC1dC2CdCCqCrdCCCdCCdCCdCCdCCdNCdC21.chk
%NProcShared=20
# opt freq b3lyp/6-31g(2df,p)

Title Card Required 

0  1
C           2.92976         0.00091         0.66757
N           5.68210         0.07828         1.71191
C           8.38306         0.17557         3.10617
C           9.18235         0.15413         2.75957
C           6.78451         0.15544         2.74955
C           7.88174         0.08783         1.83353
C           7.55829         0.26696         4.24257
C           6.69171         0.33972         5.22258
C           9.31735         0.27859         4.39723
C           9.75300         0.35727         5.45833
C          11.38451         0.35610         5.43641
C          12.11507         0.41552         6.24132
C          13.03162         0.38863         5.88705
C          13.86080         0.47518         7.04306
C          15.01392         0.44848         6.68991
C          15.88106         0.52716         7.74056
C          16.08650         0.44894         6.84673
C          17.84699         0.52057         7.66215
C          18.81125         0.48432         7.22322
N          16.81824         0.41141         5.86886
C          14.18621         0.31273         5.01074
C          11.32725         0.27125         4.04703
H           1.20868        -0.10015        -0.69116
H           1.00152         0.76357         0.42830
H           1.00152        -0.78874         0.54376
H           4.20333        -0.02184         0.36171
H           5.00845         0.20207         3.37169
H           7.22143         0.05621         1.41073
H           5.68890         0.32029         4.96132
H           7.00144         1.25441         5.65632
H           7.00145        -0.50073         5.78687
H          10.25457         0.18047         3.07204
H           9.36480        -0.51650         5.79876
H           9.36480         1.27176         5.66575
H          12.26117         0.21181         3.49601
H          11.64768         0.46757         6.94145
H          13.38123         0.26453         4.22331
H          13.99851         0.53781         7.88533
H          15.64433         0.33402         5.13399
H          16.40368         0.58007         8.45369
H          18.03297         0.39831         6.04544
H          18.73949         0.62839         9.10247
H          20.79757         0.46692         6.94241
H          16.41829         0.35576         5.48682

