%chk=CNC1dCCdCCdCCdCCdCNdCCdCCdC1.chk
%NProcShared=20
# opt freq b3lyp/6-31g(2df,p)

Title Card Required 

0  1
C           2.34224         0.53594         0.46671
N           4.58164         1.38338         1.32812
C           6.42511         2.69844         2.66486
C           5.41770         1.42837         1.37385
C           5.55125         2.25638         2.21552
C           7.14362         1.68390         1.63359
C           7.97276         2.54075         2.50457
C           9.08355         2.66768         2.63359
C          10.08794         3.49264         3.47215
C          11.08077         3.33384         3.31074
C          11.66461         3.90209         3.88836
C          12.74009         4.15666         4.14712
N          12.40802         5.62748         5.64219
C          14.37984         5.59259         5.60673
C          15.00203         6.60710         6.63796
C          13.72793         5.41823         5.42949
C          11.10796         4.73028         4.73020
C           8.78844         3.92383         3.91045
H           1.02057        -0.45387        -0.53942
H           0.83388         1.07599        -0.20755
H           0.83388        -0.14706         0.99566
H           3.67961         0.28289         0.20949
H           5.24143         0.35164         0.27937
H           3.95140         2.16151         2.11907
H           7.35122         1.09125         1.03118
H           7.76925         3.20218         3.17691
H           9.45873         2.10983         2.06655
H           9.49450         4.60892         4.60683
H          11.61755         2.95743         2.92812
H          10.24924         5.07114         5.07668
H          13.66393         3.94736         3.93437
H          15.77724         4.89198         4.89457
H          15.32652         7.87963         7.93147
H          15.68836         5.73041         5.74682
H          13.14250         4.93518         4.93848
H           7.09471         4.19348         4.18454

