%chk=CNC1dCCdCCdCSC2dCC2dCCdNS1.chk
%NProcShared=20
# opt freq b3lyp/6-31g(2df,p)

Title Card Required 

0  1
C           1.43462         0.20470        -0.13174
N           3.08918        -0.04320        -0.13700
C           4.56855         0.67622        -0.64167
C           4.52368         1.78055         0.09498
C           5.22704         3.00853        -0.11539
C           6.53636         3.19459        -0.17424
C           7.18434         4.46632        -0.27048
C           8.50057         4.44806        -0.25205
S           9.53638         5.79775        -0.27031
C          11.00844         5.08116        -0.33193
C          12.25051         5.35262        -0.35284
C          11.85412         3.89093        -0.19623
C          11.09378         2.69698        -0.15882
C           9.81376         1.31089        -0.16322
N           8.56630         0.68600        -0.24040
S           6.65467         0.03448        -0.35541
H           0.93604        -0.80471        -0.05411
H           0.94436         0.62002        -1.03515
H           0.94527         0.68335         0.76135
H           3.18946        -1.03840        -0.05831
H           4.77778         1.16852         0.97606
H           4.60589         3.88126        -0.21842
H           7.20352         2.35793        -0.09635
H           6.66357         5.39403        -0.29301
H           8.76220         3.41697        -0.19458
H          12.71715         6.33199        -0.24387
H          10.22586         3.20816        -0.24184
H          10.58842         0.49651        -0.07943

