%chk=CNCC1dCCdCCCdCCdCNdCCdC1O.chk
%NProcShared=20
# opt freq b3lyp/6-31g(2df,p)

Title Card Required 

0  1
C           1.12124         0.01911        -0.06696
N           2.76584         0.05449        -0.15394
C           4.26812         0.59556        -1.63269
C           6.60220         0.88073        -2.40079
C           5.22295         0.97620        -2.64938
C           6.68221         1.07052        -2.90713
C           7.49276         1.47066        -3.97149
C           9.92154         1.50235        -4.04422
C           9.11321         1.91132        -5.15152
C          10.04280         1.56201        -4.17216
C          10.27977         2.37234        -6.39494
C          11.99096         2.14296        -5.77374
N          12.05512         2.89286        -7.81172
C          12.67398         2.46964        -6.68825
C          10.74233         1.87979        -5.11610
C           8.84828         1.27015        -3.47935
O           7.57515         0.56080        -1.50271
H           0.73463        -0.34310         0.90591
H           0.73102        -0.63976        -0.82750
H           0.73109         1.01220        -0.21408
H           2.90885        -0.93932         0.10974
H           2.82790         1.46790        -1.53754
H           2.82738        -0.12228        -2.12807
H           4.68229         1.25291        -3.39421
H           8.14438         0.88377        -2.42085
H           6.85674         1.67505        -4.53167
H           9.57006         0.05407        -3.40515
H           9.56573         2.16639        -2.62136
H           8.64674         2.13776        -5.78613
H          11.63666         1.51744        -4.10083
H          10.60387         2.72696        -7.36559
H          13.43317         2.09188        -5.65641
H          14.50697         2.69902        -7.29127
H          12.24100         2.47386        -6.70774
H           6.46215         0.11540        -0.33849

