%chk=CNCC1dCCqOCrdCCdCCdCNq[N]CCNrN1.chk
%NProcShared=20
# opt freq b3lyp/6-31g(2df,p)

Title Card Required 

0  2
C           1.13046         0.03754        -0.10761
N           2.89662         0.01588        -0.07899
C           4.12892         1.10324        -1.07123
C           6.17500         1.57622        -1.41536
C           5.12490         2.15128        -1.96731
C           6.47295         1.97264        -1.88389
O           7.40244         0.62795        -0.71310
C           6.63922        -0.22355         0.09115
C           6.98992         3.08918        -2.81446
C           8.45541         3.19137        -2.98299
C           9.13913         3.99373        -3.66007
C          10.56343         3.01959        -3.41680
C          10.79138         4.42593        -3.32090
N          10.25435         3.10454        -2.26921
N          12.27105         3.86048        -3.48321
C          14.12934         4.68311        -4.14875
C          15.41150         5.94503        -5.26753
N          17.27849         5.91921        -5.29161
N           8.32913         2.15764        -1.70250
H           0.67122        -0.77203         0.57865
H           0.64478        -0.23481        -1.07587
H           0.63599         0.94701         0.27430
H           2.88322        -0.95579        -0.42251
H           3.20211         1.96224        -0.70856
H           3.19749         0.86307        -1.97064
H           4.57002         2.81164        -2.55533
H           7.38472        -0.82307         0.61696
H           6.06686        -0.75175        -0.65902
H           6.07013         0.45349         0.71774
H           6.45389         3.77935        -3.39368
H           9.44553         2.07133        -2.19972
H           8.81617         4.76864        -4.26493
H          11.73367         2.57759        -2.42798
H          10.62306         4.85910        -4.56531
H          14.96359         3.98464        -4.76603
H          14.96420         5.16433        -3.40863
H          15.56790         7.09734        -5.12387
H          15.56349         5.94679        -6.43896
H          17.68775         6.18892        -4.38383
H          17.81760         6.64572        -5.90803
H           8.01722         1.33812        -1.20975

