%chk=CNCdCc1cc2cqscccn1rNdC2.chk
%NProcShared=20
# opt freq b3lyp/6-31g(2df,p)

Title Card Required 

0  1
C           1.04919         0.04582        -0.11126
N           2.47629         0.08450        -0.16289
C           3.35410         0.72792        -1.02167
C           4.64569         0.53486        -0.76397
C           6.01027         0.82438        -1.15039
C           6.37006         1.61349        -2.20365
C           7.53564         2.24452        -3.04588
C           8.90004         2.30665        -3.12882
S          10.37252         1.65772        -2.26270
C           9.53794         0.79048        -1.10516
C           9.43210         0.00078        -0.05116
C           7.94062        -0.24345         0.27484
N           6.76950         0.10032        -0.18400
N           8.78020         3.15451        -4.26048
C           7.49978         3.10229        -4.19078
H           0.75315        -0.58838         0.73521
H           0.64091        -0.39754        -1.01977
H           0.64091         1.04229         0.05899
H           2.92310        -0.46472         0.57017
H           2.90085         1.32107        -1.81336
H           4.73652        -0.11620         0.10500
H           7.28597         1.34308        -1.84304
H           8.57197         0.94688        -1.31375
H          10.22287        -0.43552         0.53117
H           7.85010        -0.90638         1.15965
H           6.62559         3.49342        -4.71284

