%chk=CNdCC1dCCdCCdNNdC1C1dCqNrS1.chk
%NProcShared=20
# opt freq b3lyp/6-31g(2df,p)

Title Card Required 

0  1
C           0.96877         0.01964        -0.04399
N           2.42131         0.05178        -0.15072
C           3.04777         0.38883         0.92323
C           4.52635         0.41251         0.99278
C           5.22922         0.91643        -0.04045
C           6.68030         0.87867        -0.11852
C           7.38579        -0.26403        -0.13512
C           6.64805        -1.55172        -0.08880
N           5.92689        -2.01144         0.88656
N           5.98207        -1.27836         2.08196
C           5.28072        -0.17837         2.13714
C           5.27636         0.62204         3.36324
C           4.81059         1.74771         3.83057
N           4.64639         2.68282         4.78390
S           6.02314         0.33582         4.76065
H           0.56023        -0.38440        -0.97649
H           0.56502         1.02742         0.08706
H           0.62325        -0.62759         0.76996
H           2.52329         0.66259         1.85652
H           4.71466         1.32687        -0.90750
H           7.19517         1.83491        -0.14996
H           8.46484        -0.30381        -0.18899
H           6.68985        -2.13612        -1.02376
H           4.05837         3.49350         4.64876
H           5.06136         2.49781         5.69197

