%chk=CNdCC1dCNdCC2dNC3dC1CdCCqdC2rN3.chk
%NProcShared=20
# opt freq b3lyp/6-31g(2df,p)

Title Card Required 

0  1
C           1.97041         0.39570        -0.14768
N           4.06936         0.95809        -0.46234
C           5.74772         1.80537        -0.93531
C           8.03520         2.50114        -1.32754
C           6.23505         2.68796        -1.42955
N           7.37884         2.19419        -1.15194
C           6.85824         3.58667        -1.92965
C           8.59181         3.79496        -2.05132
N           9.57237         4.76007        -2.58655
C          10.93205         4.44174        -2.42966
C          10.01967         3.85976        -2.05005
C          12.23289         4.16578        -2.25103
C          12.93809         5.56915        -3.03733
C          11.91408         4.06025        -2.19400
C          10.67674         2.70728        -1.44252
N          11.05374         5.46697        -2.98002
H           0.93327        -0.69802         0.46299
H           0.79047         0.11963        -1.00735
H           0.79047         0.98270         0.53798
H           4.12890         1.99090        -1.03875
H           4.87936         3.10849        -1.66237
H           6.90324         4.47490        -2.42610
H          13.71906         4.91116        -2.66969
H          13.18529         6.89887        -3.77976
H          10.00102         1.75953        -0.90957
H          11.26130         6.23437        -3.40836

