%chk=CNqCrc1cccc2c1dCNdCCdCNdNCdCCdNCdCCd2.chk
%NProcShared=20
# opt freq b3lyp/6-31g(2df,p)

Title Card Required 

0  1
C           1.05625        -0.16831        -0.08205
N           2.12282        -1.95830        -0.21763
C           2.96045         0.01684        -0.92811
C           1.73400        -4.22035        -0.02101
C           2.83690        -2.48217         0.81124
C           3.81430        -1.42274         2.46937
C           3.18973        -3.21331         2.23583
C           2.11086        -4.96061         0.94521
C           0.71149        -6.61264        -0.29182
C          -0.46502        -8.81550        -0.98437
N          -1.52311       -10.99244        -1.39554
C          -2.36376       -13.02527        -1.57994
C          -2.37780       -14.38841        -0.83215
C          -2.03415       -13.08336        -0.84938
N          -1.10203       -12.23661         0.11589
N          -0.79301       -11.00132         0.12497
C          -0.09252       -10.08285         0.65831
C           0.18215        -8.74651         0.60515
C           0.98942        -7.98600         1.32508
N           1.26145        -6.77945         1.33723
C           1.98102        -6.26870         2.18406
C           2.03767        -4.91922         1.91826
C           2.98557        -4.12714         2.41997
H           0.64430         0.52061        -0.96656
H           0.64558         0.46538         0.80898
H           0.54615        -1.00324        -0.13312
H           2.46998         1.05931        -1.84473
H           3.80700        -0.06506        -1.68754
H           3.77452         1.38547        -0.72072
H           3.76231        -0.85330         1.04417
H           4.52602        -0.10382         3.54345
H           4.21605        -2.57104         3.60686
H          -1.35819       -10.48484        -1.17788
H          -3.57927       -14.02501        -2.69968
H          -1.88560       -14.66945        -0.05082
H          -2.72409       -12.04570        -2.10093
H           0.30555       -10.56664         1.36596
H          -0.32498        -7.78089        -0.27764
H           1.40715        -8.47216         2.06983
H           2.56347        -6.47492         2.85748
H           0.75398        -4.41043         1.15380
H           3.58383        -4.35858         3.48692

