%chk=CNqCrc1ncqdCdNrc2cqn[nH][nH]1rCdCCdCCdCCd2.chk
%NProcShared=20
# opt freq b3lyp/6-31g(2df,p)

Title Card Required 

0  1
C           0.99016         0.02914         0.05751
N           2.46070        -0.10222         0.03144
C           3.14410         1.25387         0.29763
C           3.40832        -1.36479        -0.22549
N           4.77194        -1.09647        -0.16237
C           5.82583        -2.32612        -0.41449
C           4.68085        -3.20652        -0.35549
N           3.50847        -4.45684        -0.56692
C           7.86297        -2.49189        -0.40198
C           7.57444        -3.90101        -0.70686
N           6.54669        -4.68132        -0.86589
N           4.94724        -4.56257        -1.06740
N           3.16437        -2.98764        -0.71523
C           9.05067        -4.37249        -0.79774
C           9.37420        -5.58694        -1.04019
C          10.13794        -4.68030        -0.86108
C          11.09665        -5.69174        -1.06052
C          12.83773        -5.24305        -0.96418
C          11.63398        -4.33139        -0.82335
C           9.74826        -2.73862        -0.51243
H           0.59896         1.05308         0.25823
H           0.58934        -0.61336         0.83570
H           0.58930        -0.27304        -0.90469
H           2.45550         2.10743         0.46446
H           3.77782         1.53167        -0.55045
H           3.77783         1.19174         1.18765
H           3.91845        -5.30899        -0.21079
H           4.89006        -5.60901        -1.14262
H           1.89056        -2.85610        -0.51215
H          10.53574        -3.58909        -0.62752
H           8.66026        -6.14584        -1.14856
H          11.42614        -3.15150        -0.55865
H          11.20075        -6.80218        -1.27830
H          13.88716        -4.91707        -0.91112
H          12.54076        -5.69433        -1.06236
H           8.83510        -1.72707        -0.28378

