%chk=COC1dCCdCCdCCdc2ccccc2dCS1.chk
%NProcShared=20
# opt freq b3lyp/6-31g(2df,p)

Title Card Required 

0  1
C           1.13090        -0.00705        -0.01809
O           2.85196        -0.17587        -0.06039
C           4.15707        -1.44255         0.35061
C           5.13709        -0.72522         0.90163
C           6.31943        -1.67770         1.80721
C           6.91384        -2.76279         1.33903
C           7.20091        -4.01327         1.93991
C           8.42050        -4.27655         1.95490
C           9.40154        -5.08866         2.17579
C          10.50574        -4.51700         1.85363
C          11.49778        -5.66665         2.43589
C          12.77486        -5.54048         2.75591
C          13.09563        -4.22837         2.17655
C          12.06562        -3.15250         1.44116
C          10.23359        -2.99303         0.93658
C           8.55606        -2.21284         0.13437
S           6.31274        -2.08987        -0.63289
H           0.71111         0.97955        -0.44358
H           0.67825        -0.04605         0.98891
H           0.66567        -0.76486        -0.65821
H           5.12411         0.07951         0.08490
H           5.86445        -2.61308         1.95843
H           7.22291        -1.55266         0.80538
H           6.48799        -4.72790         2.06649
H           8.72033        -3.40058         1.63494
H           8.94221        -5.89803         2.58010
H          11.05932        -6.65108         2.69260
H          13.40209        -6.34119         3.27918
H          14.34744        -4.35908         2.37115
H          13.05990        -2.76374         0.98547
H           9.43209        -1.40516         0.51920

