%chk=COC1dCCdCCqCrdCCqOrSCdC1.chk
%NProcShared=20
# opt freq b3lyp/6-31g(2df,p)

Title Card Required 

0  1
C           1.29132        -0.31519         0.27304
O           2.86745        -0.81180         1.06436
C           4.22099        -1.65942         2.07104
C           4.68681        -0.85156         0.95065
C           5.84178        -1.26846         1.27568
C           7.06163        -1.53719         1.31845
C           7.29044        -3.00864         2.04221
C           6.32647        -4.10059         3.49248
C           8.61552        -2.73700         2.06616
C           8.85709        -3.67457         3.11828
O           8.89484        -5.04731         3.11175
S           9.72944        -2.59992         3.86864
C           7.47610        -2.52607         4.15471
C           5.66163        -2.05777         3.39115
H           0.94664         0.55077        -0.64034
H           0.67765         0.18741         1.04436
H           0.69225        -1.13167        -0.19175
H           4.66142        -0.19319         0.09657
H           5.80951        -2.11248         1.69755
H           7.50790        -0.80583         0.79884
H           5.23227        -4.07084         3.95575
H           6.41364        -3.66774         4.90400
H           6.71116        -5.07772         3.49685
H           9.32111        -1.83702         1.77637
H           9.10548        -3.03842         4.42392
H           9.40747        -5.23326         2.32830
H           8.01458        -3.89556         4.65395
H           4.63439        -2.87014         3.10243

