%chk=COC1dCCdCCdCCdCCdCCdCC1dS.chk
%NProcShared=20
# opt freq b3lyp/6-31g(2df,p)

Title Card Required 

0  1
C           1.53523        -0.14583        -0.38858
O           3.37936        -0.71094        -1.30322
C           4.95207        -1.48153        -2.59104
C           4.75000        -0.63419        -1.18477
C           5.70103        -1.16256        -2.03856
C           6.97434        -1.20735        -2.10639
C           8.03501        -1.80668        -3.06678
C           9.19886        -1.47837        -3.15100
C           8.85539        -2.49720        -3.74848
C          10.57534        -2.47561        -4.09970
C          10.47702        -3.61575        -5.96116
C          12.06861        -2.82009        -4.71109
C          11.17063        -3.41204        -5.77322
C           9.24711        -2.95470        -5.07519
C           6.90690        -2.34290        -4.05214
S           4.63257        -2.40572        -4.06773
H           0.73313         0.55748         0.75474
H           0.66490        -0.99020        -0.07553
H           0.66493         0.51506        -1.00112
H           5.04056        -0.08630        -0.29218
H           6.08939        -1.81934        -3.09998
H           7.17751        -0.71456        -1.31668
H           7.82603        -2.70323        -4.58429
H           9.39392        -1.45375        -2.26587
H           8.15900        -3.27353        -5.38064
H          11.37620        -2.03887        -3.47667
H          10.89125        -4.20285        -6.98467
H          13.33536        -2.88073        -4.83713
H          12.45866        -4.05956        -6.76476
H          11.21495        -3.12866        -5.31528

