%chk=COC1CdCCdCCdCCdCC2dC1C2.chk
%NProcShared=20
# opt freq b3lyp/6-31g(2df,p)

Title Card Required 

0  1
C           2.65662         0.55672        -0.78387
O           4.69311         1.29953        -1.76843
C           6.72633         2.22136        -2.99030
C           5.54827         1.09490        -1.49720
C           6.25164         1.85416        -2.50359
C           7.29892         1.24984        -1.70257
C           8.13491         2.13222        -2.87214
C           9.14582         1.80388        -2.43694
C           8.39993         2.39882        -3.22552
C          10.57822         2.53219        -3.40229
C          10.82900         3.64171        -4.87294
C          11.13789         2.93996        -3.94279
C           9.17515         3.02816        -4.05970
C          11.50813         3.64086        -4.87181
H           1.45926        -0.27581         0.31964
H           1.13218        -0.25531        -1.01841
H           1.13218         1.00519        -0.06743
H           4.97146         1.70600        -2.30721
H           5.15508         0.26622        -0.39881
H           4.86946         2.37543        -3.19452
H           7.47218         0.68821        -0.95815
H           7.07577         2.98021        -3.99614
H           9.72969         1.46155        -1.98320
H           8.36175         3.54350        -4.74276
H          11.76624         2.11950        -2.85529
H          10.78457         4.38083        -5.85262
H          12.86813         3.88285        -6.01889
H          12.86813         4.67742        -5.41943

