%chk=COc1ccsc2ccncns[nH]sc1-2.chk
%NProcShared=20
# opt freq b3lyp/6-31g(2df,p)

Title Card Required 

0  1
C           0.77362         0.23770        -0.06121
O           2.03732         0.87272         0.00839
C           2.45136         1.47415        -1.16478
C           3.62545         0.51016        -1.59376
C           4.27232         0.49582        -2.75824
S           4.05132         1.77377        -3.84254
C           3.01449         2.95713        -2.98009
C           3.38658         4.17104        -3.44317
C           2.92531         5.24443        -2.66891
N           2.67235         6.45622        -3.13061
C           2.08663         7.11215        -2.10696
N           1.23499         8.08620        -2.26828
S          -0.00316         7.53429        -1.17643
N          -0.22360         5.89023        -1.99677
S           0.52447         4.17291        -1.26850
C           2.02620         2.71443        -1.83677
H           0.61218        -0.36380         0.84585
H           0.62537        -0.43329        -0.92135
H           0.08244         1.06797        -0.07058
H           3.95909        -0.31684        -0.93220
H           4.97835        -0.30645        -3.05910
H           4.13586         4.32129        -4.19385
H           2.77020         4.98906        -1.61109
H           2.02243         6.57993        -1.13818
H          -0.05810         6.28320        -2.94587

