%chk=COC1dCqCrCCC2dCCdCC2dC1.chk
%NProcShared=20
# opt freq b3lyp/6-31g(2df,p)

Title Card Required 

0  1
C           1.15949         0.14818         0.07276
O           2.60508         0.08852         0.09269
C           3.12552        -1.05639         0.71614
C           2.61313        -2.27529         0.48006
C           1.91262        -2.60509        -0.82185
C           2.73446        -3.52167         1.34864
C           3.94474        -3.66096         2.24311
C           5.10151        -3.07669         1.47206
C           6.37254        -3.55313         1.45066
C           7.06755        -2.95491         2.63499
C           6.42413        -1.75051         2.79460
C           5.23046        -1.71321         1.94089
C           4.28877        -0.77129         1.61260
H           0.84641         0.98290        -0.56189
H           0.76459         0.28366         1.08311
H           0.65494        -0.72112        -0.35513
H           1.94990        -1.78222        -1.54380
H           0.87696        -2.88837        -0.62456
H           2.42112        -3.43551        -1.32105
H           2.73395        -4.40482         0.70459
H           1.82690        -3.56922         1.96307
H           4.11084        -4.70670         2.52041
H           3.75807        -3.13920         3.20038
H           7.04481        -3.21859         0.65176
H           6.96408        -3.96460         3.09389
H           6.91562        -0.86121         3.15247
H           4.39874         0.25066         1.94665

