%chk=COC1dCCdCCdCCdCCdCCdC1SC.chk
%NProcShared=20
# opt freq b3lyp/6-31g(2df,p)

Title Card Required 

0  1
C           1.51401        -0.16352        -0.19654
O           3.31935        -0.82174        -1.11662
C           4.96838        -1.66621        -2.29103
C           4.79925        -0.73713        -0.99954
C           5.60097        -1.41810        -1.95295
C           6.86147        -1.35698        -1.86762
C           7.69317        -1.91116        -2.64454
C           8.86068        -1.89103        -2.61434
C           9.19535        -2.59157        -3.53240
C          10.70027        -2.57689        -3.56938
C          10.03750        -3.16084        -4.45542
C          10.96866        -3.54377        -4.97268
C           8.66816        -3.30012        -4.81636
C           6.55031        -2.75130        -3.83482
S           3.89477        -2.56735        -3.56198
C           1.17979        -2.41351        -3.34561
H           0.78402         0.61020         0.88576
H           0.71674        -0.99516         0.15947
H           0.71675         0.44305        -0.86829
H           5.09829        -0.13246        -0.15340
H           5.46586        -2.32772        -3.23065
H           7.20522        -0.84154        -1.14575
H           7.86632        -2.60185        -3.61090
H           9.45398        -1.51418        -2.08724
H           7.57886        -3.29848        -4.46616
H          11.60072        -2.32179        -3.21790
H          10.34683        -4.31197        -6.08464
H          12.67001        -3.31806        -4.61399
H          10.27582        -3.95022        -5.23733
H          -0.55610        -2.40066        -3.32833
H           0.45550        -3.46292        -3.26077
H           0.45551        -1.99353        -4.31091

