%chk=COC1dCCqdOrCqCrC2dCCdCCdCCdC12.chk
%NProcShared=20
# opt freq b3lyp/6-31g(2df,p)

Title Card Required 

0  1
C           1.62029         0.65521        -0.55149
O           2.55760         1.78212        -1.33823
C           4.08460         1.85287        -1.74549
C           4.71920         1.10992        -0.85962
C           5.51493         2.16613        -0.33756
O           4.96560         3.20076         0.16561
C           6.86921         2.04572        -0.89737
C           7.25545         0.82831        -1.76344
C           6.82911         3.08295        -1.93548
C           8.06542         3.66474        -2.02556
C           8.72680         4.78508        -2.65380
C           8.29030         6.03025        -2.44640
C           7.08154         6.24384        -1.67721
C           5.85159         5.65864        -1.76998
C           5.08240         4.55917        -2.62117
C           5.22777         3.18340        -2.44687
H           1.90473        -0.24196         0.09585
H           0.88841         0.26005        -1.28448
H           0.97854         1.20891         0.16835
H           4.49830         0.35058        -0.11944
H           7.50712         2.20816        -0.03114
H           6.84183         0.85479        -2.79490
H           6.93534        -0.11291        -1.32857
H           8.33944         0.82609        -1.90387
H           8.81536         3.29579        -1.29780
H           9.72787         4.64519        -3.07840
H           8.91053         6.88818        -2.73694
H           7.29027         6.93908        -0.84425
H           5.16325         6.03306        -1.02239
H           5.34273         4.91836        -3.64410

