%chk=COCC1dCCdCCdCdCdCCd[SH]CdCqCdOrCCCCdCCdC1.chk
%NProcShared=20
# opt freq b3lyp/6-31g(2df,p)

Title Card Required 

0  1
C           1.43221         0.35587         0.13654
O           3.20105         1.58994         0.66494
C           4.15403         3.61436         1.50495
C           5.59508         5.77852         2.45856
C           5.59772         3.86986         1.85308
C           6.68777         2.26458         1.51627
C           7.47965         3.12381         2.07314
C           8.89661         3.20000         2.08585
C           9.58630         4.17515         2.73149
C          10.20768         5.07635         3.32740
C          10.87337         6.06617         3.97455
C          10.30662         7.43572         4.12907
S          11.15673         8.65943         4.95686
C          10.20372        10.13050         4.93646
C          10.70786        11.18764         5.52923
C          11.99145        11.21596         6.18728
O          12.69426        10.22583         6.21360
C          10.13819        12.38687         5.56588
C          10.73498        13.50430         6.24167
C           9.98472        14.45704         5.49457
C           9.39655        14.04780         6.42654
C           8.29353        12.53265         5.22068
C           7.51480        10.22483         4.26056
C           6.65982         8.06028         3.38047
H           0.77906        -0.75422        -0.55512
H           0.72263         1.00515        -0.44392
H           0.73468         0.02973         1.03061
H           3.24215         1.99347         1.71876
H           2.99600         2.55187         0.54545
H           4.95899         2.97091         2.49558
H           7.17780         1.42653         0.88560
H           6.96551         3.88644         2.63068
H           9.40679         2.40117         1.55147
H          11.86089         5.89538         4.41058
H           9.34787         7.66753         3.73440
H          12.28809         8.87660         4.29964
H           9.29529        10.13560         4.45543
H          12.35512        12.12843         6.65950
H           9.05577        12.06765         6.38538
H           9.76846        12.80536         4.42170
H          11.56124        13.82522         5.75304
H          10.76790        13.33000         7.31828
H           8.88707        14.59411         6.85236
H           9.66097        15.30719         5.07825
H          10.78143        15.29824         7.07319
H           8.46807        14.40320         5.65680
H           7.92983        11.84137         4.86492
H           6.89558         6.58759         2.72008

