%chk=COCC1dCCdC[N]CdCCdC2CdNC1dCN2.chk
%NProcShared=20
# opt freq b3lyp/6-31g(2df,p)

Title Card Required 

0  2
C           1.85196         0.28850         0.18194
O           3.96396         0.74910         0.71222
C           5.97681         1.53662         1.59878
C           8.60699         2.07309         2.12546
C           6.61805         2.20196         2.34258
C           7.65366         1.63451         1.78404
C           7.32822         2.76012         3.08514
N           8.93910         2.99447         3.37302
C           8.93379         3.69460         4.14200
C          10.05271         3.42555         4.00374
C          10.99599         4.25052         4.86506
C          12.37312         4.15129         4.83136
C          12.08145         2.62858         3.49172
N          13.06971         2.82585         2.83423
C          10.98874         2.89528         2.86804
C          12.56365         3.94324         4.11681
N          13.50669         4.90652         5.52763
H           0.81260        -0.55404        -0.79756
H           0.74727         1.09817        -0.23513
H           0.74731        -0.24688         0.92055
H           4.30203         1.05889         1.86622
H           4.29657         1.84139         1.19320
H           4.96672         2.34646         2.59489
H           7.22382         0.97895         0.98065
H           6.61895         3.27181         3.65178
H           8.76136         4.21673         4.74207
H          10.06238         2.19635         2.61147
H          10.99388         4.90487         5.54755
H          13.02428         2.49406         2.81896
H          13.99793         4.53691         5.03055
H          13.05578         5.50394         6.25952

