%chk=COCC1OCdCCdCCdCCdCC2dCCdC21.chk
%NProcShared=20
# opt freq b3lyp/6-31g(2df,p)

Title Card Required 

0  1
C           1.47611        -0.03335         0.32806
O           3.47210        -0.17998         0.98358
C           5.14285        -0.48276         2.45749
C           7.40650        -0.53303         3.62306
O           5.50095        -0.85850         3.28134
C           6.78694        -1.42049         3.35515
C           6.71653        -2.02577         4.50226
C           8.19600        -1.97232         4.47975
C           8.49932        -2.45112         5.62824
C           9.98343        -2.95104         5.72452
C          10.05859        -2.99803         7.06564
C          11.67066        -3.52272         6.91840
C          11.99714        -3.11483         8.11888
C          11.20734        -1.59944         6.77136
C          12.52200        -2.13081         8.01908
C          11.38930        -1.18839         6.39219
C           9.62707        -0.96830         5.29073
H           0.76306         0.36741        -0.83655
H           0.70924         0.68446         0.90136
H           0.71467        -0.98449         0.30292
H           3.64949        -1.19571         1.94763
H           3.52737         0.00517         2.36223
H           6.31932        -0.86724         2.18667
H           7.41207        -0.69383         1.99033
H           5.85162        -1.68796         5.01853
H           8.97220        -1.33976         3.58812
H           7.89109        -2.23129         6.42825
H          11.02471        -2.17595         4.94688
H           9.76608        -2.76697         8.02299
H          12.76832        -2.74182         6.16794
H          11.72494        -3.29325         9.30154
H          13.29566        -3.06248         9.35692
H          12.79782        -1.77303         7.32997

