%chk=COCqOrC1dCCdCNdCdCCdCC2dCqCrCCdC12.chk
%NProcShared=20
# opt freq b3lyp/6-31g(2df,p)

Title Card Required 

0  1
C           1.94464        -0.39817         0.31769
O           3.95732        -1.20047         0.70696
C           5.72573        -2.53479         1.22246
O           3.71882        -2.58592         0.84292
C           8.03465        -3.63125         1.82967
C           6.30413        -2.96391         2.01354
C           7.03925        -1.60875         2.22714
C           7.46202        -2.26150         3.33130
N           8.97042        -2.37620         3.08480
C           9.33833        -3.29615         3.71802
C           9.95200        -4.15830         4.48902
C          11.39745        -4.16693         4.52574
C          11.98744        -5.29244         5.02541
C          12.07721        -5.08732         3.56033
C          13.70703        -4.57627         4.25116
C          14.37896        -3.27481         4.21793
C          14.46507        -5.43969         3.58986
C          12.29958        -5.20876         2.77596
C          10.25126        -4.52023         2.37803
H           0.90509         0.62692        -0.51332
H           0.77739         0.17887         1.12085
H           0.75093        -1.02612        -0.18198
H           4.40822        -1.63951         1.80141
H           2.90746        -2.44126        -0.12201
H           4.86769        -2.68591         2.64130
H           7.17531        -1.10024         1.20452
H           6.78393        -3.38769         3.50646
H           9.49217        -4.93804         5.01299
H          11.93784        -3.57083         3.28477
H          11.65912        -6.08845         5.61445
H          13.37412        -3.00441         4.39040
H          14.69954        -2.95138         3.23863
H          14.98724        -2.82413         4.99757
H          15.87353        -5.20039         4.59817
H          15.96296        -5.22990         3.13998
H          13.57633        -6.15902         3.40532

