%chk=CSC1dCqCrNdCqNNCSrCdCdCdCO1.chk
%NProcShared=20
# opt freq b3lyp/6-31g(2df,p)

Title Card Required 

0  1
C           1.18198         0.13454        -0.22402
S           3.03978         0.71764        -1.05091
C           4.37879         1.80320        -2.33533
C           5.11276         1.16338        -1.39664
C           5.40846         0.27465        -0.23838
N           5.93501         2.06882        -1.66876
C           7.01019         2.70319        -1.90125
N           8.08287         1.80757        -1.43283
N           7.66529         0.54024        -1.01152
C           8.42255        -0.08147        -0.00119
S           7.63918        -1.21307         1.19317
C           6.73669         4.06137        -3.32072
C           7.73096         4.08167        -4.18392
C           8.67631         3.39965        -4.24564
C           7.82644         2.27053        -3.82600
O           5.98430         2.10967        -3.61169
H           0.94800        -0.65212         0.63727
H           0.63584        -0.35184        -1.03134
H           0.64623         0.99120         0.19568
H           4.87135        -0.30748         0.49760
H           6.02409         0.97346         0.34136
H           5.78083        -0.60565        -0.81582
H           8.93825         1.66850        -1.93948
H           7.05570         0.04397        -1.65453
H           8.90183         0.74932         0.50872
H           9.00418        -0.65631        -0.70295
H           6.86276        -0.39075         1.94677
H           5.93242         4.04210        -4.29756
H           8.98638         2.71607        -3.08174

