%chk=CSc1c2cccc1C1dCCdC2C1qSrNdN.chk
%NProcShared=20
# opt freq b3lyp/6-31g(2df,p)

Title Card Required 

0  1
C           0.62934         0.00631        -0.07413
S           2.36891        -0.15411        -0.04467
C           2.69295        -0.56010         1.72515
C           2.53386        -0.15350         3.11681
C           3.09939        -0.99426         4.10182
C           3.75097        -2.05941         3.58505
C           4.29072        -1.76200         2.31549
C           4.01427        -0.52202         1.64768
C           4.13308         1.21407         1.83677
C           3.09804         2.17988         1.53540
C           2.17024         2.03117         2.68086
C           2.95775         1.32685         3.42792
C           4.54941         1.75662         3.18914
S           6.16161         1.92388         2.07882
N           5.15132         1.34402         4.45685
N           5.58600         2.37492         5.04314
H           0.35294         0.59209        -0.95352
H           0.28277         0.49667         0.82758
H           0.26523        -1.01201        -0.15379
H           3.65206        -0.55852         4.94924
H           3.58050        -3.04352         4.02816
H           4.22534        -2.69052         1.69801
H           3.11220         3.28766         1.61026
H           1.12461         1.75683         2.43033
H           5.65281         2.30065         0.88581
H           6.02923         2.19487         5.94967

