%chk=CSc1ncccc2ccccccc-2n1.chk
%NProcShared=20
# opt freq b3lyp/6-31g(2df,p)

Title Card Required 

0  1
C           1.36162         0.18353         0.02015
S           3.65208         1.32568         0.10465
C           5.29263         3.34242         0.10969
N           5.41819         1.91676         0.15180
C           5.95373         3.10385         0.27142
C           7.56451         3.37371         0.31854
C           8.10934         4.96931         0.55416
C           9.29719         4.88481         0.39563
C           9.00832         6.29720         0.65588
C          10.21058         6.36222         1.28799
C           9.95230         8.17880         1.03681
C          11.55944         7.34391         0.73077
C          11.99587         8.77245         0.59034
C          10.70486         7.21381        -0.12026
C           8.71308         6.06651         0.01857
N           6.73570         4.87918         0.05828
H           0.80896        -0.99796        -0.06788
H           0.75710         0.58322        -0.83630
H           0.75729         0.44950         0.92967
H           5.01839         4.58615         0.38554
H           7.66239         2.39884         0.18760
H           6.85753         6.13105         0.53286
H           8.33504         7.52162         0.59656
H          11.18881         5.66131         0.49594
H          10.19129         9.30119         0.70936
H          13.16320         7.26907         0.58262
H          12.17463        10.32076         0.77188
H          12.25384         8.29935         0.33026

