%chk=CSC1dC[SH]2CdCCdNCdCC2dCCdC1.chk
%NProcShared=20
# opt freq b3lyp/6-31g(2df,p)

Title Card Required 

0  1
C           1.02422        -0.07795         0.12566
S           2.80304        -0.67711         0.16529
C           3.14908        -2.06601         1.65331
C           2.71529        -3.56332         1.87629
S           2.68902        -5.16054         3.43113
C           3.33773        -6.87684         5.09030
C           3.86757        -8.29739         5.13347
C           5.00881        -7.52793         4.76627
N           4.91160        -7.31143         3.52093
C           5.18212        -6.01195         3.58936
C           4.54440        -5.60292         2.51141
C           4.24921        -4.28398         2.91378
C           4.43822        -3.24510         3.74303
C           4.57362        -1.83526         3.47152
C           4.01591        -1.20954         2.45689
H           0.71692         0.79559        -0.52352
H           0.60971         0.15735         1.10816
H           0.52277        -0.92644        -0.32348
H           2.53788        -3.67449         0.69104
H           2.58925        -5.56981         1.97365
H           4.10468        -7.43599         6.22466
H           4.17262        -9.48319         5.03436
H           5.43563        -6.73822         5.75815
H           4.98983        -5.32419         4.65590
H           3.72613        -6.51055         2.02972
H           4.85575        -3.49603         4.66155
H           5.08635        -1.26992         4.22144
H           4.20989        -0.11136         2.34031

