%chk=CSC1dCCdCCdCCdCCdCCdCCdCNdN1.chk
%NProcShared=20
# opt freq b3lyp/6-31g(2df,p)

Title Card Required 

0  1
C           2.13574        -0.36754        -0.85869
S           4.29611        -1.28064        -2.50447
C           6.20295        -2.32218        -4.38173
C           5.75056        -1.37933        -2.68233
C           5.59011        -1.99360        -3.78950
C           7.11352        -1.59745        -3.07548
C           7.74683        -2.40248        -4.52647
C           8.95199        -2.43953        -4.59324
C           9.54451        -3.11572        -5.81200
C          10.75604        -3.12407        -5.82707
C          11.19912        -3.75630        -6.96658
C          12.32973        -3.78436        -7.01716
C          10.99208        -4.35114        -8.03873
C          12.85548        -4.57439        -8.44111
C          13.40062        -5.29297        -9.73628
C          12.13465        -4.57917        -8.44974
N           9.86207        -3.91813        -7.25828
N           7.96216        -3.20186        -5.96727
H           1.09749         0.34796         0.43093
H           0.80553        -0.98177        -0.18396
H           0.80553         0.53002        -1.02273
H           5.58342        -0.59074        -1.26099
H           4.39744        -2.08501        -3.95425
H           7.48107        -1.14249        -2.25547
H           6.37963        -2.95453        -5.52148
H           9.30575        -2.01760        -3.83275
H           8.53528        -3.79913        -7.04378
H          11.22978        -2.75499        -5.16182
H           9.86454        -4.48932        -8.28778
H          13.14853        -3.66748        -6.80650
H          11.44210        -5.18096        -9.53439
H          14.52970        -4.47630        -8.26432
H          13.72891        -6.00020       -11.01100
H          13.84715        -5.00965        -9.22562

