%chk=CSC1CdNCdCCdCCdNCdCCdCN1.chk
%NProcShared=20
# opt freq b3lyp/6-31g(2df,p)

Title Card Required 

0  1
C           2.05340         0.69773         0.37015
S           4.09943         1.67655         1.48050
C           6.16406         3.03771         2.22612
C           5.90848         1.83776         0.85639
N           6.23766         2.72858         0.03523
C           7.50877         2.63525         0.40204
C           8.02126         3.82032         0.67189
C           9.41204         3.71089         0.88337
C          10.01617         4.85816         1.12920
C          11.48879         4.63575         1.22838
N          12.14865         5.73169         1.05048
C          13.41998         5.88055         1.55688
C          13.09779         6.51541         2.72864
C          11.72231         5.34415         3.44571
C           9.96349         4.63099         3.37299
N           8.18363         3.75900         2.85892
H           1.42049        -0.49462        -0.20986
H           1.12875         1.10269        -0.51822
H           1.06598         0.38424         1.09759
H           5.11601         3.61201         1.55283
H           5.85538         0.76692         0.36921
H           7.89023         1.60242         0.58603
H           7.32090         4.65895         1.22533
H           9.91202         2.75225         1.05287
H           9.41978         5.69065         1.78202
H          12.00724         3.70496         1.61075
H          14.06400         4.95949         1.79720
H          13.57754         7.65526         3.04757
H          13.22510         5.45293         3.53597
H          10.74183         5.91366         3.35316
H           7.39827         4.09309         3.44859

