%chk=CSCC1dc2[nH]cqCrcccccc2dCCdNCdC1.chk
%NProcShared=20
# opt freq b3lyp/6-31g(2df,p)

Title Card Required 

0  1
C           1.00991         0.05682         0.08582
S           2.83973         0.11317        -0.03502
C           3.23974        -0.63578         1.56985
C           5.17624        -0.93736         2.20223
C           6.31529        -1.45867         3.35181
N           7.03859        -1.00686         2.39752
C           7.47034        -1.48691         3.40228
C           6.68056        -2.46962         5.50860
C           8.96381        -1.36223         3.12924
C           9.53900        -1.87877         4.23678
C          10.83302        -1.95187         4.39287
C          11.23797        -2.68192         5.95846
C           9.81999        -2.59825         5.77750
C           7.85843        -2.10782         4.70373
C           5.83092        -1.91611         4.31543
C           3.84520        -2.22011         4.96879
N           2.14445        -2.09270         4.69744
C           2.54309        -1.55632         3.54443
C           3.84053        -1.15940         2.69303
H           0.62266         0.48845        -0.83973
H           0.62984         0.65022         0.92185
H           0.62984        -0.96506         0.16856
H           2.78849        -1.74780         1.40574
H           2.78847         0.20554         2.31666
H           7.51079        -0.67206         1.63153
H           5.68914        -2.61313         5.81099
H           7.09457        -1.58948         6.21467
H           7.09427        -3.58025         5.28656
H           9.86449        -1.11135         2.59070
H           8.60299        -2.51554         5.60348
H          11.77864        -1.75956         3.98066
H          11.42367        -3.15995         6.98369
H          11.39454        -2.52784         5.62813
H           4.60468        -1.76847         3.99799
H           3.51564        -2.66922         5.93127
H           2.19847        -2.18602         4.89313
H           4.72077        -0.61119         1.51819

