%chk=CSCCC1qCdOrCdCCdCCdNCdC1.chk
%NProcShared=20
# opt freq b3lyp/6-31g(2df,p)

Title Card Required 

0  1
C           1.10539        -0.06620        -0.09482
S           2.98720        -0.02839        -0.02569
C           3.56497        -1.88448        -0.16524
C           5.27549        -2.14824         0.01575
C           6.32486        -3.73589        -0.14765
C           5.28591        -4.13140        -1.46105
O           4.08436        -4.13027        -1.48576
C           7.31566        -2.92443        -0.89308
C           7.94475        -3.82914        -1.70798
C           9.33061        -3.82782        -1.67321
C           9.80618        -5.05833        -1.97129
C          10.86302        -5.34356        -1.05490
N          10.28108        -6.12046        -0.18214
C           9.16896        -5.53334         0.61616
C           7.78111        -4.74385         0.65186
H           0.70669         0.96011         0.01817
H           0.67967        -0.64177         0.73270
H           0.70411        -0.43204        -1.04776
H           3.16060        -2.11227        -1.16482
H           3.01300        -2.40677         0.61209
H           5.58163        -1.54867         0.87139
H           5.55509        -1.54023        -0.88291
H           5.76371        -4.10699        -2.47782
H           7.72899        -2.04134        -0.45264
H           7.46280        -4.83246        -1.72180
H           9.77859        -3.23999        -0.84959
H           9.09328        -5.91757        -1.93338
H          11.63708        -4.54853        -0.87455
H           9.96662        -5.42463         1.41405
H           7.19325        -5.27350         1.40738

