%chk=N[C]C1dNCdCCdCNqCCdOrC1.chk
%NProcShared=20
# opt freq b3lyp/6-31g(2df,p)

Title Card Required 

0  1
N           1.15956        -0.06823         0.00124
C           2.50125        -0.70256        -0.69958
C           3.77641        -1.61345        -1.60125
N           4.69936        -0.93211        -1.02959
C           5.49451        -1.51612        -1.80930
C           6.60342        -1.89089        -2.23778
C           6.43638        -2.58358        -3.77176
C           7.58504        -3.02908        -3.40301
N           6.42163        -3.95185        -3.32109
C           8.05054        -4.21508        -4.51964
C           9.33451        -5.18884        -5.67271
O          10.60960        -5.21045        -5.82835
C           4.37666        -3.08945        -2.90784
H           0.89769         0.61560         0.76231
H           0.68111        -0.91569         0.28346
H           5.21856        -1.66672        -2.79255
H           7.33941        -1.50501        -1.60453
H           5.50184        -3.49510        -4.55586
H           8.52304        -2.65191        -2.84419
H           9.13567        -4.50426        -3.78976
H           9.09884        -3.29949        -4.82303
H           9.00972        -5.79267        -6.50359
H           3.23539        -3.29970        -2.22028
H           3.31631        -2.20167        -3.36806

