%chk=NC1CdCCdC2CdCN1CdCC1dCCdC1CqdOrOO2.chk
%NProcShared=20
# opt freq b3lyp/6-31g(2df,p)

Title Card Required 

0  1
N           2.17358         0.00126        -0.80221
C           3.96848         0.22895        -1.87013
C           2.78177         1.30504        -1.53410
C           3.78676         1.70466        -0.79459
C           4.10439         2.63479        -1.74274
C           5.36999         2.62211        -1.32632
C           5.63951         3.27826        -2.77633
C           6.51880         2.50160        -3.27118
N           5.59215         0.95091        -2.72984
C           7.43930         1.46331        -2.51457
C           8.73334         1.75972        -2.19100
C           9.47894         1.02025        -1.14650
C          10.74095         0.74687        -0.83414
C          10.18765        -0.21083         0.18647
C           8.93917         0.12001        -0.19578
C           7.56784        -0.30886         0.31200
O           7.37971        -1.14446         1.19617
O           6.31069         0.14600         0.01397
O           6.17201         1.15332        -0.93318
H           1.74609        -0.28291         0.22195
H           1.23904        -0.11908        -1.19931
H           3.73615        -0.26510        -0.49559
H           1.92400         1.76669        -2.05651
H           4.61472         0.82804        -0.23363
H           3.69953         2.70600        -2.91965
H           5.41262         3.65841        -3.78849
H           7.70707         3.12128        -3.80165
H           7.62522         1.13244        -1.55772
H           9.27685         2.49659        -2.77968
H          11.50685         1.32711        -1.52154
H          10.25944        -0.98319         1.03520

