%chk=Nc1cccccccc2cqnccn1rdCNd2.chk
%NProcShared=20
# opt freq b3lyp/6-31g(2df,p)

Title Card Required 

0  1
N           1.86702        -0.50138         0.34593
C           3.63820        -1.30156         0.92711
C           3.50203        -2.25835         1.62202
C           5.25290        -1.49658         1.06875
C           6.07618        -2.53300         1.82150
C           7.17828        -1.97756         1.41808
C           7.84606        -2.81346         2.02521
C           9.09951        -2.97020         2.13905
C           9.78042        -3.80563         2.74582
C          11.07632        -4.04672         2.92092
C          11.34244        -5.15705         3.72736
N           9.55318        -5.75264         4.15995
C           7.86170        -5.13840         3.71382
C           6.12624        -3.97760         2.87073
N           4.55715        -2.81404         2.02562
C          12.77898        -4.82691         3.48758
N          12.19170        -3.60014         2.59657
H           0.66617        -0.82066         0.57782
H           0.91246         0.41197        -0.31744
H           2.53206        -1.90377         1.36449
H           5.26754        -0.50914         0.35156
H           4.93172        -3.73267         2.69283
H           7.38266        -1.18279         0.84084
H           7.53110        -3.55193         2.56156
H           9.50377        -2.26002         1.62324
H           9.05281        -4.29489         3.10117
H           9.29201        -5.32711         3.85088
H           6.57729        -5.18590         3.74832
H          13.89487        -5.39682         3.90151

