%chk=NC1CdC2CdCCdCCqdC1COrCdCCdCC2.chk
%NProcShared=20
# opt freq b3lyp/6-31g(2df,p)

Title Card Required 

0  1
N           1.64049         0.40560         0.01383
C           3.59825         0.82178         0.18801
C           4.08878         1.38284         1.56855
C           5.75528         1.58181         2.16718
C           4.75249         2.80968         2.00213
C           5.79916         2.99053         2.66867
C           6.38449         4.12322         2.99357
C           7.38021         4.22855         2.04111
C           6.61882         3.46106         0.39070
C           5.27819         2.14447        -0.21043
C           4.07536         0.69100        -1.46275
O           3.73269        -0.02258        -3.16052
C           8.04280         4.80996         1.52121
C           8.84572         5.85232         2.86480
C          10.47653         5.14578         3.62985
C           9.28997         3.80491         3.58520
C           7.80908         2.33404         2.68162
H           0.95301         0.10300         0.88340
H           1.01242        -0.56103        -0.52699
H           3.25059        -0.51923         0.40168
H           2.78563         1.95140         1.30492
H           4.02009         3.51283         2.28120
H           6.54644         2.82740         1.87518
H           5.83820         4.95469         3.17937
H           8.76620         3.48889         2.03428
H           2.71800         0.05668        -1.74654
H           3.66286        -0.78215        -1.50718
H           3.00962         0.25608        -3.84668
H           9.54867         4.69831         1.79568
H           9.29383         6.76754         4.08855
H          11.83176         5.93883         3.91592
H          10.00270         5.21090         3.91159
H           7.59357         1.32780         1.81593
H           7.78990         2.11671         1.17786

