%chk=NC1dCCdCCdCCdCCdCCdCCdNCdC1.chk
%NProcShared=20
# opt freq b3lyp/6-31g(2df,p)

Title Card Required 

0  1
N           3.69125         0.59291         0.59191
C           6.02203         1.02987         1.02973
C           4.04903         1.14933         1.10974
C           5.25539         0.89767         0.87209
C           5.35577         2.16485         2.05796
C           6.78512         2.18106         2.07181
C           7.52943         2.86959         2.71729
C           8.96113         3.00452         2.81701
C           9.59992         3.76526         3.52809
C          10.97111         3.81430         3.36646
C          11.56448         4.49388         4.22692
C          13.05595         4.65439         4.36169
C          13.89007         5.30869         5.00141
C          14.34633         4.39370         4.18285
N          12.70256         3.35179         3.36273
C          10.56880         2.42033         2.71793
C           8.57070         1.72078         1.74247
H           1.94783         0.64788         0.63941
H           2.14913         0.00302         0.03564
H           2.72349         1.61570         1.54449
H           5.27828         0.02674         0.05768
H           4.65487         2.58748         2.45382
H           7.19382         1.51378         1.44590
H           6.97925         3.38419         3.19931
H           9.90731         2.01615         1.81900
H           9.13367         4.28278         4.04275
H          11.69966         2.53916         2.13845
H          11.36628         5.12056         4.82862
H          14.04727         3.55772         3.33064
H          13.62632         5.95704         5.60683
H          16.15101         4.43038         4.17826
H          12.30013         3.31043         3.06350
H           7.89666         0.76933         0.75399

