%chk=NC1dNC2dCqCdOrCdC3CdNCNCC2CN3C1.chk
%NProcShared=20
# opt freq b3lyp/6-31g(2df,p)

Title Card Required 

0  1
N           2.41842         0.73404        -0.21587
C           3.74710         1.40456        -0.59636
N           3.89231         2.57476        -1.21053
C           5.04049         3.24680        -0.61987
C           5.10788         2.96316         0.80795
C           4.40815         4.22569         1.00445
O           3.12500         4.28715         0.89433
C           6.43806         2.15119         1.68247
C           7.58926         2.12127         0.98753
C           9.01075         2.00067         0.32268
N           9.27585         2.00596        -0.98080
C           8.24788         1.89505        -2.13680
N           8.06392         3.02935        -3.10311
C           6.99339         4.02645        -2.79747
C           6.34596         4.08667        -1.40661
C           7.26940         3.64283        -0.42206
N           6.88707         1.96559        -0.16445
C           5.38052         0.83359        -0.23056
H           1.52272         1.26150        -0.16700
H           2.12706        -0.25968        -0.13434
H           4.99251         5.12697         0.81429
H           6.48384         1.01542         1.78572
H           9.82107         2.37080         1.00483
H           7.20468         1.66991        -1.96540
H           8.47200         0.95206        -2.62806
H           7.77041         2.60393        -3.98019
H           6.06212         4.18207        -3.34956
H           7.47726         4.97540        -3.15737
H           6.62164         5.13962        -1.21633
H           7.34226         4.39724         0.45542
H           8.34266         3.84513        -0.65115
H           5.24890         0.25893         0.71749
H           5.58716         0.08374        -0.98907

