%chk=NC1dCCCdCCdC2CdCNdC2C1.chk
%NProcShared=20
# opt freq b3lyp/6-31g(2df,p)

Title Card Required 

0  1
N           1.82331        -0.17404        -0.02058
C           3.51854         0.20554         0.18674
C           2.99410         1.29271         0.75141
C           4.27446         1.55670         0.88755
C           4.49469         2.73653         1.50627
C           5.73503         2.80245         1.52570
C           6.43751         3.74974         2.04759
C           7.50063         3.09320         1.72086
C           8.42414         4.32505         2.35959
C           9.47157         3.66450         2.00303
N           8.88137         2.17904         1.24511
C           7.52188         1.33123         0.79516
C           5.60490         0.21883         0.22367
H           1.06876         0.54340         0.35568
H           1.11969        -0.86467        -0.38100
H           2.21831         1.92060         1.07557
H           4.65028         1.68148        -0.30922
H           4.63489         0.66314         1.69226
H           3.92641         3.45116         1.90026
H           6.03299         1.96602         1.03830
H           6.19455         4.65681         2.52311
H           8.31309         5.41046         2.92721
H          10.42124         4.52569         2.45286
H           5.27491        -0.91045         0.55505
H           5.31091        -0.23170        -0.87946

