%chk=NC1dCCdCCdCCqdCdOrCdCCCqOrdC1.chk
%NProcShared=20
# opt freq b3lyp/6-31g(2df,p)

Title Card Required 

0  1
N           2.77123         0.24199        -0.07750
C           4.97221         0.65568        -0.25972
C           3.33692         1.17014        -0.48177
C           4.75792         1.35647        -0.56292
C           5.29689         2.41114        -1.02236
C           6.58081         2.72663        -1.15975
C           7.00892         3.69243        -1.58244
C           8.00626         3.15416        -1.33128
C           9.18655         1.45835        -0.59894
O          10.37469         0.96045        -0.39014
C           9.26142         4.41687        -1.89402
C          10.05425         3.21494        -1.36683
C          10.51556         4.61670        -1.98423
C           9.34117         2.75920        -1.18140
O          11.25840         3.98195        -1.71360
C           7.41616         1.42935        -0.59926
H           1.19939         0.63376        -0.24815
H           1.35678        -0.50876         0.24964
H           2.59822         1.93028        -0.81291
H           6.11438         1.07694        -0.44051
H           4.67083         3.04856        -1.30001
H           8.20848         2.11836        -0.90178
H           6.80810         4.44421        -1.90789
H           9.11839         5.36794        -2.31064
H          11.48635         2.77513        -1.17934
H          11.39492         6.03239        -1.75889
H          11.39527         5.41683        -3.17314
H          12.57603         4.66633        -2.00560
H           6.67667         0.06522        -0.00100

