%chk=NC1dCdCCdCCdC1NCCdNCCCCS.chk
%NProcShared=20
# opt freq b3lyp/6-31g(2df,p)

Title Card Required 

0  1
N           1.27976         0.23550        -0.25965
C           2.59557        -0.26607        -0.40911
C           2.64460        -1.35661        -1.00762
C           3.11197        -2.11036        -2.00271
C           3.78112        -1.23853        -2.99279
C           5.02776        -1.18698        -2.53253
C           5.00867         0.05448        -1.38182
C           3.93772         0.56617        -0.34112
N           3.41305         1.76407         0.71605
C           3.57995         2.58007         2.24388
C           2.34912         3.48533         3.23472
N           2.69611         4.35637         4.18272
C           1.71591         5.16335         5.07026
C           2.42194         6.16984         6.07458
C           1.43463         7.03669         6.92867
C           2.16634         8.00591         7.87533
S           1.01082         8.97358         8.91692
H           0.62146        -0.50768        -0.52335
H           0.92810         0.61868         0.60913
H           3.68637        -2.95410        -1.61823
H           3.45808        -0.17894        -3.07522
H           5.52251        -2.18924        -2.68643
H           5.73835         0.53902        -2.10532
H           2.45366         1.43252         0.82776
H           4.18238         3.44236         1.96401
H           4.01349         1.92717         3.00941
H           1.26813         3.24799         3.12978
H           1.08351         4.51530         5.69493
H           1.05836         5.78338         4.44800
H           3.06879         6.85989         5.52010
H           3.06507         5.61999         6.77360
H           0.79174         6.37930         7.52763
H           0.78516         7.61999         6.26460
H           2.79806         8.70084         7.31219
H           2.81306         7.44724         8.55965
H           0.34057         9.62286         7.95116

