%chk=NC1SCdCCdC1NdCNCdO.chk
%NProcShared=20
# opt freq b3lyp/6-31g(2df,p)

Title Card Required 

0  1
N           0.90991         0.17930        -0.02271
C           2.35836         0.08803         0.10700
S           2.99143         1.67941        -0.44404
C           3.84485         1.28969        -1.87174
C           4.10375         0.04297        -2.27727
C           3.66580        -1.17213        -1.61464
C           2.87470        -1.20856        -0.52003
N           2.48519        -2.45224         0.02230
C           1.82618        -2.46241         1.13353
N           1.32997        -3.60876         1.69670
C           0.52426        -3.63953         2.80842
O           0.12004        -4.67525         3.33398
H           0.61588         1.03416         0.43371
H           0.43885        -0.60636         0.40188
H           2.67843         0.06267         1.15514
H           4.20750         2.13862        -2.44329
H           4.69722        -0.07644        -3.18128
H           3.99233        -2.09863        -2.08310
H           1.56852        -1.58053         1.73947
H           1.55157        -4.49463         1.26689
H           0.25218        -2.64638         3.20367

