%chk=NCC1dC2NdCCdCCdCCdC2CCCSC1dS.chk
%NProcShared=20
# opt freq b3lyp/6-31g(2df,p)

Title Card Required 

0  1
N           0.39571        -0.10098         0.07203
C           1.81836        -0.23753         0.13029
C           2.59197         0.68959         0.97985
C           3.31456         1.52217         0.20464
N           2.84994         2.03710        -1.02346
C           3.10656         1.23941        -1.92346
C           3.37033         1.57677        -3.33490
C           3.71663         0.36237        -3.76859
C           5.13574         0.21490        -3.45170
C           5.66747         0.45474        -2.17559
C           5.42809         1.37425        -0.65514
C           4.62448         2.10125         0.40337
C           3.59176         3.45420         1.09676
C           2.08776         3.29850         1.92703
C           2.13791         2.89999         3.41668
S           3.16853         1.43047         3.65196
C           2.40575         0.36922         2.47070
S           1.30592        -0.77141         3.10264
H           0.15046        -0.57309        -0.79978
H           0.23593         0.89203        -0.13733
H           1.91326         0.02357        -0.89144
H           2.33615        -1.20365         0.12743
H           3.45596         0.18304        -1.63765
H           4.19120         2.31978        -3.33526
H           3.09263        -0.53079        -3.56146
H           5.62371         0.34232        -4.44407
H           5.54512        -0.61031        -1.83003
H           6.38930         1.08296        -0.19809
H           3.34685         4.18948         0.31485
H           4.17564         4.02606         1.83767
H           1.39207         2.63443         1.39551
H           1.51002         4.23779         1.89153
H           1.12282         2.76385         3.84311
H           2.58130         3.70313         4.01473

