%chk=NCC1dCCdCCdCCdCNdCCdCCdCCdN1.chk
%NProcShared=20
# opt freq b3lyp/6-31g(2df,p)

Title Card Required 

0  1
N           2.15158        -0.88469         0.03280
C           4.14274        -2.40379         0.13424
C           5.88694        -4.65136         0.30183
C           5.25804        -2.71599         0.15126
C           4.90962        -3.82375         0.05045
C           6.51125        -3.18426         0.24219
C           7.33888        -5.04687         0.32832
C           8.45319        -5.02899         0.32760
C           9.13148        -6.22272         0.42256
C          10.16844        -6.47073         0.44149
N          10.73460        -7.33527         0.51364
C          11.70161        -7.74623         0.54416
C          11.59448        -8.72726         0.61361
C          13.21013        -9.69316         0.69709
C          13.57110       -11.27013         0.82233
C          12.11295        -9.97965         0.71665
C           9.63135        -8.38118         0.57970
N           7.79334        -6.73925         0.46550
H           1.02201         0.49687        -0.12228
H           0.77911        -0.55711         0.76773
H           3.36561        -0.66618         0.52598
H           3.36625        -0.75486        -0.55101
H           5.06630        -1.06583         0.01271
H           3.99019        -4.12718         0.36627
H           7.00988        -2.41369         0.11872
H           6.18014        -5.99226         0.40331
H           8.73182        -4.19952         0.26178
H           8.26459        -7.83562         0.55043
H          10.65733        -5.82863         0.39086
H          12.46167        -7.46462         0.52049
H          10.85615       -10.64471         0.76601
H          14.22409        -9.16795         0.65574
H          13.10041       -12.40956         0.91267
H          14.15338       -10.50706         0.76108
H          11.18421        -9.78491         0.73005

