%chk=NCc1ccc2cccc3ccccqFrc3c1-2.chk
%NProcShared=20
# opt freq b3lyp/6-31g(2df,p)

Title Card Required 

0  1
N           1.16636        -0.07306         0.24854
C           2.69553        -0.29834         0.40901
C           3.60727         0.38433         1.75879
C           3.17133         1.83108         1.22040
C           3.50085         2.73589         2.07949
C           4.22337         2.03593         3.13191
C           4.21345         2.73427         4.23209
C           4.06260         1.87379         5.31729
C           5.11732         1.84456         6.08902
C           5.40165         0.45326         6.05985
C           5.42220         0.09979         7.59260
C           5.57001        -1.15230         8.09203
C           6.17737        -1.89249         7.10581
C           6.15865        -1.50876         5.47617
F           7.41103        -1.92222         5.08827
C           5.45624        -0.32101         4.72993
C           4.48266         0.36828         3.09599
H           0.80132        -0.72040        -0.46874
H           0.90030         0.82455        -0.18888
H           3.04678         0.13346        -0.56858
H           2.84351        -1.36367         0.34559
H           2.52916         2.13688         0.35729
H           3.11258         3.76800         2.07830
H           4.01738         3.78632         4.34511
H           3.58520         0.90807         5.05097
H           5.70843         2.66480         6.45679
H           5.23100         0.88849         8.34351
H           5.38533        -1.42688         9.14354
H           6.85305        -2.65088         7.57884

