%chk=NCC1dCCdC2SNdC2CCqOrS1.chk
%NProcShared=20
# opt freq b3lyp/6-31g(2df,p)

Title Card Required 

0  1
N           0.88380         0.14472         0.06747
C           2.35074         0.16646         0.16315
C           2.85242        -0.93782        -0.73509
C           2.57888        -2.17943        -0.29460
C           2.47548        -3.48031        -0.87188
C           2.93695        -3.85771        -2.05213
S           3.53331        -5.32521        -2.66388
N           4.29936        -4.12133        -3.58978
C           3.38778        -3.25747        -3.27700
C           2.71740        -2.23864        -4.11148
C           2.42430        -0.87691        -3.51826
O           1.04555        -0.74034        -3.19632
S           3.56822        -0.41733        -2.22090
H           0.48941         0.84753         0.68323
H           0.53129        -0.75614         0.38846
H           2.67434         0.00714         1.19821
H           2.71778         1.14884        -0.14839
H           2.40682        -2.25618         0.78481
H           2.04287        -4.23891        -0.22031
H           1.76729        -2.70706        -4.39999
H           3.31266        -2.13046        -5.02347
H           2.57784        -0.14930        -4.32555
H           0.88865        -1.18068        -2.34656

