%chk=NCC1d[SH]CCCSCqdSrCdCCdN1.chk
%NProcShared=20
# opt freq b3lyp/6-31g(2df,p)

Title Card Required 

0  1
N           1.64813        -0.41329        -0.62150
C           3.35366        -1.06564        -1.48165
C           4.33420        -2.23275        -3.09362
S           5.18191        -0.88384        -1.43507
C           5.20722        -2.20451        -2.95758
C           6.73497        -2.12179        -2.82995
C           7.37960        -2.87307        -3.82519
S           9.04492        -2.96613        -3.88968
C           8.44048        -4.87007        -4.74683
S           6.82334        -5.80646        -5.96319
C           9.81339        -4.34428        -5.65857
C           8.84918        -4.39333        -6.60585
C           7.03523        -3.45417        -5.76595
N           5.68622        -3.20761        -4.56017
H           1.23314         0.42363         0.33703
H           0.95760        -1.00126        -0.05492
H           3.34205        -0.86281        -0.01866
H           3.33065         0.29763        -0.91558
H           5.22987        -1.61668        -0.29812
H           4.63219        -1.31407        -4.19229
H           4.60785        -3.57160        -2.42432
H           6.94337        -2.66257        -1.94307
H           6.94311        -1.11909        -3.13671
H           6.92065        -2.08757        -4.93745
H           6.84009        -4.15203        -3.58944
H          10.92018        -4.40882        -5.64976
H           9.29249        -5.58568        -7.52648
H           8.06107        -4.58238        -6.35880

