%chk=NCCCCOC1dC2CdCqNdN2rSCdC1.chk
%NProcShared=20
# opt freq b3lyp/6-31g(2df,p)

Title Card Required 

0  1
N           0.94156        -0.01090        -0.08299
C           2.39981        -0.01997        -0.07548
C           2.92151        -0.58753        -1.39311
C           4.44907        -0.60503        -1.44187
C           4.94191        -1.16041        -2.78371
O           6.36528        -1.19231        -2.76700
C           7.00462        -1.56251        -3.93651
C           6.64098        -1.16819        -5.18997
C           7.74204        -0.77881        -6.11833
C           7.97863        -1.97014        -6.69302
N           6.75235        -2.59221        -6.85354
N           5.95933        -2.10682        -5.98582
S           9.38483        -2.86320        -6.12400
C           9.12554        -2.92362        -4.40076
C           8.18960        -2.36390        -3.62577
H           0.59877         0.33937         0.81075
H           0.59015        -0.96409        -0.16848
H           2.75652        -0.62120         0.76776
H           2.76240         1.00379         0.06476
H           2.54135         0.01286        -2.22924
H           2.54410        -1.60870        -1.53166
H           4.84827        -1.20458        -0.61271
H           4.84598         0.40755        -1.29233
H           4.57426        -0.52824        -3.59684
H           4.57363        -2.18492        -2.90930
H           7.23723        -0.04663        -6.77230
H           9.87674        -3.51570        -3.87159
H           8.27767        -2.56826        -2.55286

