%chk=NCdc1cc2ccn-2c2n1CSCd2.chk
%NProcShared=20
# opt freq b3lyp/6-31g(2df,p)

Title Card Required 

0  1
N           0.90435        -0.06934        -0.12063
C           2.26441        -0.02960        -0.01331
C           3.00928         0.25441         1.07344
C           2.30287         0.55860         2.33696
C           3.07271         0.80090         3.39043
C           3.03307         1.11675         4.76856
C           4.38931         1.10161         4.70371
N           4.36620         0.81138         3.44288
C           5.12161         0.55917         2.33764
N           4.43129         0.27738         1.12393
C           5.31272         0.02169        -0.00859
S           7.03210         0.17721         0.63445
C           6.46269         0.53947         2.23788
H           0.45508        -0.29598        -0.99706
H           0.32416         0.16020         0.67619
H           2.75122        -0.27291        -0.95366
H           1.22927         0.57928         2.43093
H           2.21542         1.27266         5.45286
H           5.19032         1.26481         5.41791
H           5.16012         0.76250        -0.79850
H           5.16975        -0.99097        -0.39548
H           7.14611         0.72627         3.05334

