%chk=NCOC1CdNOCdCNdCCdCO1.chk
%NProcShared=20
# opt freq b3lyp/6-31g(2df,p)

Title Card Required 

0  1
N           1.43409         0.22800        -0.26997
C           3.25483         0.27160        -0.47935
O           4.40873         1.20645        -1.66551
C           6.32105         1.64084        -2.27305
C           5.36607         2.74872        -1.95624
N           6.12192         3.46322        -1.23507
O           6.56737         4.27314        -2.18931
C           7.87442         4.43492        -1.92127
C           8.30935         5.41476        -2.67712
N           9.58519         5.72516        -2.45875
C          10.09025         6.05804        -3.57710
C          10.57924         4.65449        -3.86759
C           9.43216         3.41725        -3.88859
O           7.61770         2.71517        -3.31688
H           1.05060        -0.57391         0.36907
H           0.88984        -0.04176        -1.09917
H           3.22645        -0.80310        -0.71319
H           3.32095         0.33566         0.68173
H           6.42297         1.46917        -1.02884
H           4.32277         3.05869        -2.31218
H           8.60826         3.54909        -1.72656
H           7.79894         5.56466        -3.67024
H           9.66672         6.67670        -4.42595
H          11.84287         5.12306        -3.94478
H           9.51766         4.36797        -4.89429

