%chk=Ndc1ccccccccncc2cq[nH]1rSC2.chk
%NProcShared=20
# opt freq b3lyp/6-31g(2df,p)

Title Card Required 

0  1
N           3.46693        -0.66356        -0.40144
C           5.56138        -1.10212        -0.71911
C           3.39665        -1.16943        -0.74747
C           4.90009        -1.35932        -0.87347
C           5.10809        -2.44483        -1.61897
C           6.26160        -2.55240        -1.69158
C           7.18995        -3.33623        -2.23047
C           8.40377        -3.34243        -2.21669
C           8.81736        -4.34285        -2.92805
C           9.90730        -4.31484        -2.84672
N          10.81515        -4.80545        -2.78030
C          12.43639        -3.72456        -2.25755
C          11.40718        -4.43843        -3.09814
C          10.01747        -3.03516        -2.17558
N           7.91254        -1.88011        -1.28838
S          12.09463        -4.59431        -3.57364
C          12.37919        -6.31809        -4.27544
H           1.66949        -0.70622        -0.42812
H           2.59666        -1.89156        -1.24082
H           6.62311        -1.35693        -0.86686
H           4.62698        -3.00030        -2.00150
H           7.07625        -2.76383        -1.83456
H           6.84486        -4.01200        -2.69581
H           9.23521        -2.22028        -1.44521
H           8.96431        -5.09795        -3.43933
H          11.21485        -3.19755        -2.12080
H          13.78535        -4.30869        -2.88636
H           7.26441        -0.67369        -0.41058
H          12.52288        -7.93658        -4.33467
H          12.30582        -7.17551        -5.64526

