%chk=NdC1CdNNdNNdNCdN1.chk
%NProcShared=20
# opt freq b3lyp/6-31g(2df,p)

Title Card Required 

0  1
N           3.15991        -0.10091        -0.05012
C           4.07177         0.24537         0.84262
C           3.32793         0.72152         2.07024
N           4.26657         0.98886         2.75951
N           4.50471         1.45978         3.97363
N           5.67973         1.35759         3.71022
N           6.97423         1.46167         3.97854
N           7.68016         1.04054         2.89286
C           6.96203         0.51688         1.54273
N           5.71955         0.20279         0.73292
H           2.16214         0.04354         0.32230
H           2.21162         0.76757         2.18895
H           6.26494         0.76908         2.19249

