%chk=NdC1CdCCdC2CdCC3dC2CdNC3dC1.chk
%NProcShared=20
# opt freq b3lyp/6-31g(2df,p)

Title Card Required 

0  1
N           2.50714         0.31977        -0.40186
C           3.65661        -0.17187         0.03987
C           3.30590        -1.02610         1.22972
C           4.54602        -1.08307         1.72697
C           5.45653        -1.48592         2.61026
C           6.79590        -1.14881         2.63317
C           7.36336        -2.36849         3.04285
C           8.33351        -2.36078         2.15481
C           7.94568        -1.31914         1.04802
C           7.98748        -0.24689         1.84823
C           9.01640        -0.17136         0.52638
N           8.30990        -0.09062        -0.61349
C           6.98771        -0.48852        -0.13342
C           5.50508         0.03307        -0.48009
H           1.66313        -0.04990         0.15229
H           2.37264        -1.34983         1.65470
H           5.22892        -0.67398         1.12440
H           5.05754        -2.41079         3.01024
H           7.03957        -2.94247         3.88622
H           9.32752        -2.57077         2.62881
H          10.25034        -0.22805         0.70432
H           5.26772         0.88711        -1.15189

