%chk=Ndc1cccc2ccc-2ccnn2cccc2cc1O.chk
%NProcShared=20
# opt freq b3lyp/6-31g(2df,p)

Title Card Required 

0  1
N           1.42493         0.61023        -0.08912
C           2.26759         1.56173        -0.35871
C           3.15520         1.49310         0.86456
C           4.52332         1.32648         0.73838
C           5.32214         2.52266         0.55655
C           6.60168         2.60512         0.31639
C           7.60294         1.63106         0.12576
C           8.54129         2.59359         0.25002
C           7.56184         3.64413         0.37308
C           7.61984         4.96853         0.56664
C           6.43066         5.77742         0.76377
N           6.35490         7.05139         0.90945
N           5.01163         7.35022         0.79574
C           4.08345         7.43966         1.85467
C           3.12697         8.31632         1.47541
C           3.62966         8.41747         0.14978
C           3.86989         6.70395        -0.17796
C           3.79320         4.80263        -0.68098
C           3.26479         3.13499        -0.82303
O           3.73715         1.39851        -1.40889
H           0.45302         0.88479        -0.01958
H           2.44491         2.38689         0.84474
H           4.95038         0.45928         0.13096
H           4.82356         3.45520         0.67414
H           7.54551         0.55465        -0.00103
H           9.61403         2.55197         0.26115
H           8.54279         5.50574         0.61960
H           5.49427         5.23560         0.79129
H           3.92529         6.55736         2.40949
H           2.15199         8.61538         1.86819
H           3.32242         9.65800         0.00170
H           4.80722         5.55186        -1.00332
H           3.31660         0.26358        -0.88443

