%chk=NdC1CdCC2dS1NNSCCCdCCdCCqdOrCdC2.chk
%NProcShared=20
# opt freq b3lyp/6-31g(2df,p)

Title Card Required 

0  1
N           0.53847        -1.25268        -0.03992
C           1.74441        -1.77912         0.00843
C           2.69239        -0.39739        -0.03345
C           3.93112        -0.67735        -0.02673
C           4.07106        -2.22161         0.11025
S           2.54666        -3.88804        -0.24654
N           1.86221        -6.01255         0.33223
N           1.46846        -7.81416        -0.31892
S           2.81466        -9.26061        -0.18252
C           3.86560        -7.94806        -0.11131
C           5.29110        -7.77090        -0.12829
C           5.41113        -6.30218        -0.10296
C           6.65845        -5.83169        -0.09826
C           6.87892        -4.46056        -0.08506
C           7.94416        -3.66648        -0.10595
C           8.00069        -2.16330        -0.11285
O           9.10125        -1.61206        -0.11538
C           6.73508        -1.33865        -0.07233
C           5.55745        -1.99384        -0.00371
H           0.69936        -0.18684        -0.03500
H           2.49862         0.73565        -0.04582
H           4.69551         0.19628        -0.04509
H           2.29782        -6.54601         1.06723
H           0.99576        -8.54653         0.40615
H           3.60367        -7.62764         0.89046
H           3.44551        -7.46498        -0.99442
H           5.67507        -8.17827        -1.05048
H           5.67828        -8.18041         0.79932
H           4.50601        -5.66610        -0.09047
H           7.49970        -6.47114        -0.10813
H           5.85352        -4.26181        -0.04352
H           8.89983        -4.16355        -0.11679
H           6.93471        -0.25649        -0.05710
H           5.51549        -2.93975        -0.24817

