%chk=Ndc1cnccsccccc2cnc1-2.chk
%NProcShared=20
# opt freq b3lyp/6-31g(2df,p)

Title Card Required 

0  1
N           5.37476         0.97352         0.14687
C           7.05933         2.20055         0.26825
C           4.82241         1.97035         0.25171
N           6.26801         2.09404         0.26518
C           5.44830         3.19156         0.37773
C           7.01989         3.62230         0.42758
S           7.02253         5.08282         0.57230
C           8.25585         4.18507         0.48431
C           9.22178         5.36076         0.60376
C          10.47751         5.39874         0.62683
C          11.63187         6.61555         0.73129
C          11.22914         5.05674         0.51060
C          12.67702         6.11859         0.70848
N          11.53607         4.39363         0.47798
C           9.61243         3.44639         0.39193
H           3.71576         0.65004         0.11491
H           3.09844         2.20458         0.27523
H           4.46887         3.62052         0.42184
H           8.14215         2.00820         0.26355
H           8.92776         2.52277         0.31291
H           9.22541         6.34747         0.70310
H          10.91849         3.48769         0.44170
H          11.36979         7.60230         0.83275
H          13.34534         7.76069         0.84614

