%chk=NdC1NdCCC1dCCdCdNCqdOrCdC1CdCCN1.chk
%NProcShared=20
# opt freq b3lyp/6-31g(2df,p)

Title Card Required 

0  1
N           1.02620         0.18190        -0.05363
C           2.30302         0.19497        -0.01899
N           3.00529        -0.97430         0.09239
C           4.22733        -0.65742         0.36714
C           4.50390         0.79879         0.57929
C           3.25096         1.35461        -0.01317
C           3.00792         2.58552        -0.52302
C           3.96474         3.70947        -0.56790
C           3.76644         4.90706        -1.08566
N           3.62022         6.01060        -1.51834
C           4.66270         6.56483        -2.26558
O           5.73637         5.99781        -2.44586
C           4.40707         7.97154        -2.84275
C           5.31414         8.68275        -3.55820
C           6.61674         8.20789        -3.98429
C           7.35622         9.21949        -4.46136
C           6.60210        10.50722        -4.40187
N           5.28835         9.99893        -4.00661
H           0.72246        -0.79932         0.01356
H           5.03985        -1.39392         0.49698
H           5.41806         1.09675         0.07008
H           4.56419         0.97760         1.65706
H           2.02350         2.77587        -0.95110
H           4.94022         3.51004        -0.12726
H           3.46844         8.44146        -2.56262
H           6.94751         7.18446        -3.95508
H           8.36055         9.11560        -4.84288
H           6.62333        11.04029        -5.35830
H           7.01127        11.14989        -3.61350
H           4.44087        10.50719        -4.22284

