%chk=Ndc1ssc2nc-2ccc1NdS.chk
%NProcShared=20
# opt freq b3lyp/6-31g(2df,p)

Title Card Required 

0  1
N           0.34499        -0.18914         0.20699
C           1.58614         0.00301        -0.01685
S           3.02384        -0.84882         0.97547
S           5.51863        -0.76254         0.87497
C           5.87805        -1.82215         2.10934
N           6.76123        -2.39095         2.77195
C           5.43372        -2.74257         3.18157
C           4.07664        -2.68895         3.11910
C           2.62341        -2.02262         2.34287
C           3.07956        -0.77546         0.89002
N           3.01041         0.45070        -0.53838
S           3.46499         1.37795        -1.61857
H           0.39691        -0.83110         0.95483
H           4.08182        -2.02729         2.34831
H           2.46580        -2.75134         3.19178

