%chk=NdC1CdCCdCCdCCdCCdCSCdCCdC1.chk
%NProcShared=20
# opt freq b3lyp/6-31g(2df,p)

Title Card Required 

0  1
N           4.03079         0.72479         0.71706
C           6.30320         1.15459         1.09043
C           3.92166         1.07928         1.02500
C           5.34608         1.09123         1.03538
C           5.12992         2.15371         1.95835
C           6.53045         2.31927         2.10217
C           7.27687         3.00314         2.69624
C           8.43960         3.27704         2.93418
C           9.24736         3.98552         3.54962
C          10.42187         4.14966         3.69221
C          11.16339         4.90642         4.34960
C          12.28872         5.17095         4.57940
S          13.39374         6.13979         5.42101
C          14.96487         5.28001         4.67414
C          13.43315         4.18242         3.72066
C          11.31799         2.92420         2.62767
C           8.99381         1.96582         1.79513
H           2.17027         0.59408         0.60351
H           2.56458         1.61520         1.49055
H           5.06272         0.02422         0.10849
H           4.53190         2.67232         2.40886
H           7.23660         1.71425         1.57660
H           6.72212         3.59943         3.21423
H           9.22834         2.92935         2.63214
H           8.82959         4.60952         4.09168
H          10.16977         3.16895         2.84027
H          10.94325         5.60199         4.95383
H          12.22467         4.36977         3.88341
H          15.68434         4.78385         4.24312
H          14.64815         5.46419         4.83413
H          12.98949         3.50752         3.13439
H           7.95847         0.96906         0.92925

