%chk=NdC1CdCSCC2dCCdCC2dCCdCS1.chk
%NProcShared=20
# opt freq b3lyp/6-31g(2df,p)

Title Card Required 

0  1
N           1.58473        -0.61412         0.53804
C           2.74274        -1.12760         0.23880
C           3.27290        -1.19594        -1.12436
C           4.56223        -0.81779        -1.30546
S           5.51666        -1.55574        -2.53578
C           7.16135        -1.68438        -1.69540
C           7.78081        -2.98445        -2.06063
C           8.82127        -3.11740        -2.90890
C           9.02524        -4.51315        -3.20585
C           8.14155        -5.25603        -2.50021
C           7.31201        -4.33433        -1.66497
C           6.30614        -4.63205        -0.77609
C           5.56714        -3.61817         0.06987
C           4.37059        -3.49491         0.70427
S           3.79218        -1.93692         1.46513
H           1.09155        -0.27291        -0.30081
H           2.69555        -1.81465        -1.78872
H           5.07021        -0.21696        -0.56203
H           7.21757        -1.56214        -0.60845
H           7.73562        -0.83935        -2.06873
H           9.35945        -2.30672        -3.38201
H           9.74862        -4.84249        -3.94526
H           8.07684        -6.32979        -2.60017
H           6.02175        -5.68026        -0.66816
H           6.17886        -2.75382         0.23366
H           3.67623        -4.31194         0.83613

