%chk=NdC1CdNC2dCqCdCS1rCdC[SH]NS2.chk
%NProcShared=20
# opt freq b3lyp/6-31g(2df,p)

Title Card Required 

0  2
N           1.16271        -0.05452        -0.04666
C           2.36058        -0.01160         0.42699
C           3.22743         1.21062         0.55130
N           4.50628         1.08621         0.69464
C           5.09405         1.89258         1.67086
C           4.66980         1.78032         2.96602
C           3.38336         1.13442         3.35125
C           2.84224        -0.08621         3.20839
S           2.78915        -1.06937         1.77212
C           5.40672         2.27658         4.14188
C           6.16429         3.31280         4.41122
S           6.60106         4.71430         3.42056
N           6.12708         4.29178         1.88441
S           6.58725         2.79464         1.33000
H           0.59705         0.67083         0.40453
H           2.65129         2.13662         0.73413
H           2.74725         1.81211         2.77758
H           2.19888        -0.38826         4.04300
H           5.24128         1.60234         4.99561
H           6.56371         3.32630         5.43305
H           7.90456         4.55471         3.38977
H           6.44563         4.97543         1.19094

