%chk=NdCC1dCqOrCdCOCqSSrdC1.chk
%NProcShared=20
# opt freq b3lyp/6-31g(2df,p)

Title Card Required 

0  1
N           0.93822         0.17347        -0.02533
C           2.22698         0.08764        -0.08999
C           3.03663         0.70772        -1.17876
C           2.63200         1.90668        -1.63060
O           1.50591         2.54854        -1.14129
C           3.28270         2.67646        -2.64840
C           4.39773         2.39438        -3.33620
O           5.25111         1.32697        -3.29992
C           5.15015         0.19600        -2.50465
S           6.45703        -0.98044        -2.78461
S           6.09822        -2.56014        -1.48918
C           4.18810        -0.04537        -1.59639
H           0.59914        -0.38287         0.77057
H           2.79429        -0.48073         0.66934
H           1.00393         1.89092        -0.60492
H           2.78040         3.61646        -2.88021
H           4.75938         3.09739        -4.08054
H           7.11704        -3.39025        -1.75465
H           4.21974        -0.98107        -1.05612

