%chk=NdCCNdCC1dC2CdNC1dCCdCS2.chk
%NProcShared=20
# opt freq b3lyp/6-31g(2df,p)

Title Card Required 

0  1
N           0.83818         0.07065        -0.04129
C           2.13801         0.06363        -0.04664
C           2.96518        -0.40328         1.11989
N           4.32063        -0.40003         0.56146
C           5.25342        -0.95341         1.29352
C           6.85065        -0.92927         0.89405
C           7.21861         0.32192         0.49648
C           6.85036         0.74242         1.86117
N           7.24295        -0.07152         2.81039
C           7.63696        -1.23574         2.11610
C           8.92721        -1.62211         1.95468
C          10.04141        -0.90816         1.35718
C          10.04609         0.24605         0.69655
S           8.71215         1.22908         0.22089
H           0.52130         0.41438        -0.95458
H           2.68690         0.41043        -0.93672
H           2.64362        -1.41169         1.40287
H           2.79652         0.28143         1.96772
H           5.02543        -1.21619         2.35439
H           6.08496         1.54234         1.89188
H           9.21461        -2.63299         2.24523
H          11.00981        -1.41478         1.44630
H          11.03042         0.63424         0.40131

