%chk=NdCC[N][C]C12CdCC1dCCdCS2.chk
%NProcShared=20
# opt freq b3lyp/6-31g(2df,p)

Title Card Required 

0  2
N           0.72211         0.07341        -0.00639
C           2.01662         0.13516        -0.04896
C           2.74908         1.13752        -0.90725
N           4.06154         0.94390        -0.38938
C           5.14698         1.58477        -1.09539
C           6.57313         1.57776        -1.32167
C           7.10992         0.55253        -0.29586
C           6.83505        -0.46504        -1.19265
C           7.10729         0.50250        -2.22584
C           7.91174         0.55370        -3.27667
C           8.48884         1.84939        -3.59036
C           8.31288         2.98831        -2.89303
S           7.33438         3.19966        -1.46974
H           0.48534        -0.67433         0.64906
H           2.60999        -0.58538         0.55472
H           2.38733         2.14322        -0.69234
H           2.60013         0.88593        -1.96107
H           7.19773         0.68224         0.77163
H           6.63810        -1.52111        -1.19196
H           8.33644        -0.35806        -3.68095
H           9.20541         1.84720        -4.40398
H           8.83989         3.88246        -3.20453

