%chk=NN1CdNNdCC2dNCdCSCdNNdS2NdC1.chk
%NProcShared=20
# opt freq b3lyp/6-31g(2df,p)

Title Card Required 

0  1
N           1.18116         0.11750         0.22341
N           2.99544         0.36938         0.53465
C           3.60510         1.22467         1.31087
N           5.23323         0.59472         0.65862
N           5.99250         1.24630         1.33425
C           7.08010         1.58188         1.66826
C           7.67926         2.45793         2.53448
N           8.87706         2.32369         2.40224
C           9.45324         3.13499         3.20183
C          10.98965         3.29736         3.36336
S          11.47813         4.76387         4.80949
C          12.98599         4.39119         4.44122
N          11.43485         4.93629         4.98947
N           9.61530         4.28979         4.34939
S           7.41102         3.57743         3.64202
N           5.41763         2.57442         2.65752
C           4.27512         1.47807         1.61381
H           0.62686         0.70888         0.81461
H           0.72545        -0.87630         0.35473
H           2.60488         1.71214         1.75896
H           7.42594         0.92818         1.02252
H           8.42861         4.22389         4.27492
H          11.63775         2.72234         2.79579
H          13.58319         3.67445         3.73821
H           3.96717         0.23623         0.34781

