%chk=NN1CCdCCdCCdCc2cccc1c2.chk
%NProcShared=20
# opt freq b3lyp/6-31g(2df,p)

Title Card Required 

0  1
N           4.51829        -0.59701        -0.99215
N           6.63920        -1.36147        -1.02029
C           4.70218        -1.77929        -0.33350
C           5.39905        -0.95207         0.81427
C           5.69916        -2.28685         0.82491
C           7.15014        -2.01936         0.88612
C           7.90451        -3.04989         0.56284
C           9.23279        -2.70874         0.99098
C          10.09883        -3.71316         0.75787
C          11.44361        -3.40592         0.40759
C          12.18657        -2.52983         1.25828
C          12.57752        -1.72701         0.30859
C          10.80135        -1.43902        -0.51423
C           8.75891        -1.71590        -1.02812
C          10.26245        -2.98871        -0.96923
H           3.30316         0.01077        -0.37904
H           3.21813        -0.74454        -0.18198
H           3.27551        -1.99689        -0.88272
H           3.55174        -1.78666         0.71252
H           5.37752         0.16225         0.22471
H           5.22381        -3.24604         0.22604
H           7.58932        -0.81797         0.43014
H           7.46913        -3.97349         0.26592
H           9.59371        -1.49582         0.79875
H           9.83839        -4.67906         0.36934
H          11.61116        -1.64640         1.67500
H          13.73217        -1.45208         1.26294
H          12.27232        -2.02536        -0.78975
H          11.30246        -4.10637        -1.02816

