%chk=NNC1dNCdCdCdCCdCNdCN1O.chk
%NProcShared=20
# opt freq b3lyp/6-31g(2df,p)

Title Card Required 

0  1
N           1.68209         0.40913        -0.15792
N           3.35635         0.45024        -0.91683
C           4.85728         1.14580        -0.40429
N           4.65809         1.18099         0.91393
C           5.28420         2.18559         1.57169
C           6.54237         2.15309         1.61679
C           7.77959         2.06889         1.55758
C           9.03061         2.18540         1.44141
C           9.51956         3.28577         0.64807
C          10.25331         2.80439        -0.34498
N           9.30458         2.22046        -1.36427
C           7.83534         2.56170        -1.46407
N           6.03441         2.26903        -1.12231
O           5.08928         3.56390        -0.77837
H           1.19132        -0.55043        -0.25174
H           0.93543         0.88513        -0.72295
H           3.49837        -0.46152        -0.41079
H           4.76109         3.14305         1.55874
H           9.76556         1.72020         2.07167
H           8.63034         3.73581         0.20137
H          11.34544         2.48876         0.00713
H           8.17738         3.61800        -1.85659
H           4.23807         3.16051        -0.34004

