%chk=NNC1dCCdCC2dCN2CdCdCCdCNdC1.chk
%NProcShared=20
# opt freq b3lyp/6-31g(2df,p)

Title Card Required 

0  1
N           0.89065        -0.15622        -0.40997
N           2.19659        -0.22296        -0.86120
C           2.88900        -0.40852        -2.16830
C           4.18738        -0.34140        -1.68850
C           5.31014        -0.19529        -2.46423
C           6.63054        -0.13428        -2.42013
C           7.20146        -0.13429        -3.67154
C           8.26093        -0.16379        -4.40099
N           7.10629        -0.19454        -5.11442
C           5.79581        -0.19917        -5.47795
C           5.22233        -0.30456        -6.63675
C           4.27599        -0.45495        -7.52236
C           3.16735        -1.38377        -7.21981
C           2.11023        -0.79974        -6.63719
N           1.87895        -0.47138        -5.22201
C           2.09105        -0.35145        -3.87397
H           0.88491        -0.02339         0.62764
H           0.46556        -1.07683        -0.49287
H           2.85306        -0.14937        -0.05801
H           4.50834        -0.24583        -0.63948
H           4.79898        -0.02685        -3.34597
H           7.25091        -0.16851        -1.52662
H           9.29508        -0.18532        -4.19323
H           4.96993        -0.21347        -4.82260
H           4.12427         0.34749        -8.24613
H           3.42973        -2.30941        -6.73281
H           1.56746        -0.34830        -7.56223
H           1.17150         0.17870        -3.58969

