%chk=NNC1dCCdCCdCCdNNdCCdCCdCCdC1.chk
%NProcShared=20
# opt freq b3lyp/6-31g(2df,p)

Title Card Required 

0  1
N           2.21983         0.45654        -0.52432
N           4.30103         1.48044        -1.43079
C           6.13823         2.78240        -2.62860
C           5.04272         1.49296        -1.42157
C           5.87402         2.13069        -2.14037
C           7.02834         1.62328        -1.47046
C           7.79813         2.41634        -2.27895
C           8.93502         2.67647        -2.52346
C           9.87867         3.58101        -3.36705
N          11.00536         3.44236        -3.23812
N          11.65247         4.08133        -3.83412
C          12.72640         4.03959        -3.79530
C          12.64500         4.83521        -4.53603
C          14.35463         5.12477        -4.80767
C          15.06174         5.92792        -5.55725
C          13.06220         5.71803        -5.36358
C          10.55590         4.95239        -4.64864
C           8.31935         3.98813        -3.75128
H           1.04840        -0.45221         0.41437
H           0.79162        -0.17911        -0.91135
H           3.58553         0.33637        -0.34184
H           5.04310         0.29304        -0.29891
H           4.22827         2.58919        -2.38502
H           7.13837         0.94935        -0.91207
H           7.52003         3.09712        -2.91538
H           9.30508         2.05905        -1.94730
H           9.29791         4.66946        -4.38231
H          13.50963         3.85655        -3.62452
H          12.39117         6.33918        -5.93961
H          15.41768         4.86433        -4.56477
H          15.51825         6.97214        -6.53135
H          14.98475         6.02936        -5.65200
H          11.30560         6.04570        -5.66699
H           6.70778         3.81510        -3.58580

