%chk=NNC1dc2cqNrccncc3cqnc2NN1rdC3NON.chk
%NProcShared=20
# opt freq b3lyp/6-31g(2df,p)

Title Card Required 

0  1
N           1.28051         0.03692        -0.12295
N           2.82209         0.30568         0.04534
C           3.83193        -0.47085        -0.45396
C           5.34250        -1.23713        -1.01944
C           5.25284        -2.61972        -1.83291
N           4.31893        -3.38467        -2.32432
C           6.52880        -3.07061        -1.99507
C           7.00855        -4.06281        -2.74177
N           8.19064        -3.69391        -2.79826
C           9.34961        -3.96433        -3.32859
C          10.16676        -3.12543        -2.69615
C           9.59314        -2.99380        -1.26189
N           8.52730        -1.67843        -0.84776
C           7.18461        -0.98971        -0.59561
N           5.60780        -0.58875        -0.34725
N           4.00880        -1.69795        -0.54622
C          10.96985        -2.95326        -1.56069
N          11.27580        -1.64735        -1.35712
O          11.93321        -0.89440        -0.47860
N          10.83921         0.00758        -0.15050
H           0.74637         0.79404         0.35064
H           0.87200        -0.78806         0.35948
H           2.99702         1.13746         0.58566
H           3.33419        -3.26889        -2.17914
H           4.68712        -4.19540        -2.77656
H           7.21020        -2.40499        -1.75507
H           6.38654        -4.75147        -3.23882
H           9.38625        -5.02617        -3.27977
H           5.48421         0.34746         0.11168
H           3.27497        -1.73804        -1.40510
H          10.31427        -1.33558        -1.13121
H          11.31778         0.71536         0.37033
H          10.30523        -0.56858         0.50936

