%chk=NSCC1dNCdCCdCNdNNdCCdCC1dS.chk
%NProcShared=20
# opt freq b3lyp/6-31g(2df,p)

Title Card Required 

0  1
N           1.02741        -0.03358        -0.11134
S           3.14841        -0.12903        -0.27135
C           4.89728        -0.87026        -1.94730
C           7.27321        -1.09127        -2.44124
N           5.66758        -1.35677        -3.02988
C           6.89905        -1.34496        -3.00427
C           7.71695        -1.83634        -4.09920
C           9.15343        -1.99165        -4.44334
C           9.56393        -2.44554        -5.45851
N          10.55262        -2.25995        -5.04087
N          11.54548        -2.57706        -5.74931
N          13.28624        -2.08368        -4.64494
C          12.28574        -2.79993        -6.24515
C          13.53478        -2.34765        -5.24058
C          11.91561        -1.88202        -4.20576
C           9.65769        -1.34605        -3.01240
S           8.85585        -0.64050        -1.43452
H           0.60941         0.36815         0.81417
H           0.58865        -0.97112        -0.13184
H           3.44897        -0.25172        -2.39770
H           3.44903        -1.61824        -1.78487
H           6.45262        -0.65735        -1.47204
H           6.96329        -2.10410        -4.69678
H          10.66247        -1.65797        -3.69802
H           8.99361        -2.70351        -6.03279
H          13.21483        -3.28537        -7.32949
H          15.12164        -2.60553        -5.81481
H          13.20218        -2.51143        -5.61135

