%chk=NtCC1d[SH]C2dC1CdCCdCSCdCCdC2.chk
%NProcShared=20
# opt freq b3lyp/6-31g(2df,p)

Title Card Required 

0  1
N           4.89197        -0.55250         0.11732
C           6.49741        -0.74099         0.15172
C           8.76515        -1.07419         0.20194
S           6.69050        -1.87023        -0.05768
C           9.11060        -1.91821         0.08492
C          11.19681        -2.00479         0.17392
C          13.64571        -3.10665         0.25904
C          15.37952        -3.49241         0.29486
C          13.74743        -4.20129         0.34329
C          12.21176        -3.35375         0.29276
S          11.63076        -4.74583         0.37851
C          10.29673        -3.33870         0.30301
C           9.18506        -3.80161         0.31356
C           9.20513        -2.49478         0.19538
C           7.51428        -2.72469         0.23140
H           4.88425        -2.04002        -0.65906
H          15.14515        -4.11649         0.33148
H          16.39992        -2.82544         0.25225
H          14.54592        -5.46679         0.42505
H          13.34172        -1.89136         0.19365
H          10.26964        -1.48927         0.22837
H           9.13483        -4.67810         0.38306
H           9.81159        -0.59291         0.05504
H           6.93191        -3.60605         0.32682

