%chk=NtCCOOC1dCCdCCdCCdCCdCCdCC2dCCdCC21.chk
%NProcShared=20
# opt freq b3lyp/6-31g(2df,p)

Title Card Required 

0  1
N           1.02505        -0.08990         0.03592
C           2.28601        -0.08990         0.03592
C           3.80601        -0.08990         0.03592
O           6.41291        -1.86955        -0.74250
O           9.10217        -3.69340        -1.49484
C          11.68520        -5.28420        -2.38398
C          10.24666        -3.91016        -1.84660
C           8.61652        -3.41820        -2.98071
C          10.24699        -3.34004        -2.82935
C          11.18381        -4.34822        -3.95797
C          12.36369        -3.91017        -3.40752
C          12.81930        -5.43119        -3.87415
C          14.04159        -5.32387        -3.73248
C          14.66320        -6.10947        -4.95208
C          16.12355        -6.16181        -4.63950
C          16.79003        -7.09750        -5.49373
C          18.27330        -7.26848        -5.23112
C          16.56860        -7.84422        -4.72948
C          17.90531        -8.49889        -6.27770
C          18.28005        -9.57768        -5.87325
C          16.67293        -8.51949        -4.53900
C          14.34223        -6.89153        -3.42665
H           4.18862        -0.18766         1.03981
H           4.20023         0.80735        -0.41455
H           9.09572        -2.49280        -1.35977
H           7.83820        -4.11350        -2.69396
H          10.44141        -2.38171        -1.69572
H          10.11543        -5.09731        -3.49638
H          12.46231        -3.58469        -2.36759
H          12.15671        -6.22450        -4.19752
H          14.56748        -4.69564        -3.14416
H          14.23328        -7.27783        -5.02185
H          16.69691        -5.75944        -3.86879
H          16.08077        -8.40051        -5.95831
H          18.84560        -6.81832        -4.57747
H          18.11831        -8.84357        -7.76704
H          19.41678       -10.46666        -7.36582
H          18.48810        -9.41048        -5.05478
H          16.25145        -7.62816        -3.66340

