%chk=OC1dC2CdCCCdCCdC1NdC2.chk
%NProcShared=20
# opt freq b3lyp/6-31g(2df,p)

Title Card Required 

0  1
O           0.61097         0.34055         1.09568
C           2.17115         0.53219         0.84126
C           3.26792         1.49994         0.57638
C           3.37795         2.93529         0.10717
C           2.26875         3.45460         0.06202
C           1.16310         4.42517        -0.11861
C           0.05202         3.37839        -0.37882
C           0.25735         1.97930        -0.76368
C           1.42844         0.54165        -1.10909
C           2.42934        -0.16706        -0.34167
N           3.84115        -0.42174        -0.40888
C           4.35488         0.67223         0.04032
H          -0.08061         0.27880         0.32561
H           4.24225         3.59074        -0.08025
H           1.69414         2.63022         0.36536
H           1.31513         5.04043        -0.98679
H           1.21771         4.98862         0.83608
H          -1.07675         3.73174        -0.05164
H          -0.68789         1.98960        -0.21209
H           0.93737        -0.51818        -0.91192
H           5.40440         1.08868        -0.01241

