%chk=OCCdNC1dCSCdCdC2CdCC1dCC1dNNC2N1.chk
%NProcShared=20
# opt freq b3lyp/6-31g(2df,p)

Title Card Required 

0  1
O           1.40450        -0.10365         0.36444
C           3.08438        -0.25583         0.60307
C           4.17590        -0.49827         2.32363
N           5.60098        -1.13336         3.07854
C           6.82535        -1.10411         4.47633
C           6.99890         0.13164         3.99747
S           6.92933         1.23071         5.24845
C           8.62524         1.01783         5.16468
C           9.10157         1.00685         6.36516
C           9.67948         0.84940         7.52614
C           9.20227        -0.29149         8.22588
C           8.80477        -1.44173         7.54210
C           8.52566        -1.51443         5.67532
C          10.21436        -1.41376         5.65521
C          11.52352        -0.07866         6.10635
N          11.49935         1.13792         5.47765
N          11.45482         2.17837         6.64514
C          11.14842         1.31363         7.77492
N          12.13013         0.26922         7.40801
H           1.06259        -0.11147        -0.59876
H           3.18908         0.68928        -0.07323
H           3.12483        -1.05365        -0.15347
H           3.18921         0.00684         2.90128
H           6.92646         0.33198         2.87552
H           9.09138         0.42623         4.30920
H           9.14244        -0.11255         9.32489
H           9.57001        -2.07320         8.38904
H          11.06724        -2.05239         6.40541
H          10.75334         2.95245         6.65222
H          11.24777         1.65291         8.81139
H          12.93054         0.97897         7.19540

