%chk=OCqdSrC1dC2CdC2CdCdC2NdCCC21.chk
%NProcShared=20
# opt freq b3lyp/6-31g(2df,p)

Title Card Required 

0  1
O           2.12117         0.67594        -0.16400
C           2.88398         0.81285        -1.32866
S           1.97734         0.19403        -2.58722
C           4.57591         1.22646        -1.33311
C           4.70366         0.81479        -0.02342
C           5.21383         0.27875         1.13468
C           5.70093        -0.36929         0.11746
C           5.22180        -1.31243        -0.90452
C           5.56127        -1.12702        -2.11422
C           5.42130        -0.44192        -3.23445
N           5.92904        -1.14147        -4.28941
C           6.91207        -0.47011        -4.75577
C           6.94896         0.92929        -4.16984
C           5.54277         1.05579        -2.97404
H           1.22422         0.30213        -0.40141
H           5.40926         0.31933         2.20272
H           4.12514        -1.31523        -0.94372
H           7.57963        -0.86074        -5.56880
H           6.74164         1.44612        -5.14626
H           7.99652         1.17095        -3.94232
H           5.12630         1.92957        -3.50772

