%chk=OdC1CdCCdCdCdCc2ccsccccc21.chk
%NProcShared=20
# opt freq b3lyp/6-31g(2df,p)

Title Card Required 

0  1
O           6.11738         1.99505        -0.62958
C           7.30656         2.38241        -1.62731
C           5.22639         1.53871        -1.55166
C           4.86606         0.07245        -1.53873
C           5.40201         0.62049        -2.75173
C           6.70494         0.59074        -2.83126
C           7.89387         0.60336        -2.65896
C           9.17118         0.71502        -2.51017
C           9.88048         1.87777        -2.93214
C          11.37299         1.79176        -3.36954
C          12.06740         2.55629        -4.34375
S          13.98019         2.23322        -4.50091
C          14.49215         3.83373        -5.18705
C          15.31978         4.14020        -4.20815
C          13.44649         4.40473        -3.42096
C          11.60612         3.88440        -2.66279
C           9.61997         2.96399        -2.16591
H           3.61588         1.08483        -1.84024
H           5.09331        -0.11918        -0.44317
H           4.69601         1.11397        -3.44474
H           9.82507         0.02185        -2.00960
H          12.00804         1.16219        -2.72430
H          11.67733         3.69564        -4.52169
H          14.06627         5.00087        -5.40335
H          16.59428         3.52237        -4.12183
H          14.71128         5.23109        -4.11748
H          13.22365         3.81310        -2.83143

