%chk=OdC1CdCCdCNCNNNdCdCCdCNdNCdC1.chk
%NProcShared=20
# opt freq b3lyp/6-31g(2df,p)

Title Card Required 

0  1
O           5.69217         1.93763         0.55041
C           6.94402         2.26162         1.50134
C           4.85397         1.49020         1.47725
C           4.99940         0.17339         1.77380
C           5.29939         1.15767         2.83245
C           6.60172         1.03649         3.03935
N           7.31889         1.99872         3.63084
C           8.69002         1.96763         3.91540
N           9.27665         2.66049         4.95501
N          10.66098         2.41889         4.98484
N          11.39833         3.20328         5.84559
C          12.57654         3.03335         5.98942
C          13.91347         2.91522         6.12184
C          14.70084         4.07135         6.88826
C          15.76412         4.22279         6.17723
N          14.31976         4.50330         4.91616
N          12.80946         3.96398         3.90454
C          11.00666         3.25923         2.93767
C           9.21337         2.73776         2.14340
H           3.23693         1.24658         1.83410
H           5.12008        -0.01380         0.49137
H           4.58774         1.86625         3.28366
H           7.16631         0.51979         2.07535
H           6.76380         2.43383         4.29938
H           9.24137         3.22016         3.63605
H           9.12929         0.96369         3.51098
H           8.88285         2.11366         5.63127
H          11.10126         1.97822         4.12979
H          14.56117         2.42747         5.30433
H          14.23214         5.10704         7.01489
H          16.70010         3.53156         5.93755
H          12.11328         3.85155         4.00369
H           8.36106         1.78873         1.35325

