%chk=OdC1CdCNCdCC2dCCdCCC1dC2.chk
%NProcShared=20
# opt freq b3lyp/6-31g(2df,p)

Title Card Required 

0  1
O           5.56463         2.05556        -1.23964
C           6.07528         1.24376        -2.04185
C           4.40500         0.40934        -1.80807
C           4.65047        -0.82701        -1.45221
N           5.13772        -1.08898        -2.71790
C           6.46876        -1.06200        -2.82161
C           7.06773        -0.91565        -3.99473
C           8.43027        -0.63727        -3.84945
C           9.14225        -1.35241        -2.89205
C          10.50396        -1.37982        -2.45555
C          11.16127        -0.30946        -2.80871
C          10.00467         0.97981        -3.06264
C           8.10077         1.31754        -2.73845
C           8.29859         0.84554        -3.95722
H           3.24908         0.25962        -2.19729
H           5.20109        -0.62523        -0.50069
H           4.73397        -0.40793        -3.45517
H           6.98847        -0.76155        -1.85023
H           6.55403        -0.35502        -4.79505
H           8.61072        -1.86191        -2.10429
H          11.00048        -2.11041        -1.82432
H          12.30392        -0.45197        -2.92595
H          10.30838         0.61598        -4.26639
H          10.80863         1.75701        -3.23886
H           8.43206         1.28641        -4.97002

