%chk=OdC1CdCCdNNdCNdC1C1dCC1.chk
%NProcShared=20
# opt freq b3lyp/6-31g(2df,p)

Title Card Required 

0  1
O           1.99514         0.03597        -0.11103
C           3.12517         0.15043         0.34958
C           2.95816         0.50102         1.69141
C           4.17688         0.60064         2.08485
C           4.71199         0.92752         3.30654
N           5.91060         0.82595         2.91801
N           7.10365         0.84788         2.99765
C           7.31635         0.50046         1.67290
N           6.28402         0.12297         0.23934
C           4.78521        -0.04034        -0.36023
C           3.71348        -0.43261        -1.84840
C           3.11904        -0.73172        -2.98313
C           1.92809        -0.60668        -2.26249
H           2.12502         0.66352         2.29006
H           4.94138         0.41095         1.41657
H           4.17766         1.15199         4.15776
H           8.50756         0.56956         1.93947
H           3.43746        -0.97928        -3.96940
H           1.14400        -1.44437        -2.15765
H           1.01962         0.09907        -2.49441

