%chk=OdC1SCdCCdCNdCC2dCCdS2S1.chk
%NProcShared=20
# opt freq b3lyp/6-31g(2df,p)

Title Card Required 

0  1
O           4.58438        -0.96894        -0.80052
C           5.34283        -0.42289         0.02417
S           3.78920         0.80856         0.85141
C           5.09870         1.59024         1.23264
C           5.68141         2.49577         1.88959
C           7.02536         2.26475         1.79188
C           7.68558         3.09304         2.48396
N           8.89643         2.86350         2.12874
C           9.80369         3.50573         2.41698
C          10.48088         2.61956         1.55106
C          11.65184         2.41009         2.13059
C          11.97198         1.38880         1.01103
S           9.83828         0.66009         1.13723
S           7.62347         0.01004        -0.18661
H           5.85102         1.09429         0.74550
H           5.23586         3.21838         2.48154
H           7.61296         1.55257         1.23302
H           7.41482         3.92598         3.00955
H          10.16014         4.30671         3.11358
H          12.16660         3.36938         2.72586
H          13.07798         1.70014         1.36603

