%chk=Odc1cccc2cc1NdCNdNCdCNdCCdC2.chk
%NProcShared=20
# opt freq b3lyp/6-31g(2df,p)

Title Card Required 

0  1
O           2.65862         1.06306         0.60239
C           4.03904         1.31369         0.74903
C           3.35154        -0.39011        -0.24782
C           4.14201        -1.28232        -0.76983
C           5.26339        -1.98122        -1.17873
C           6.46406        -0.90133        -0.54692
C           6.28582         0.93554         0.52778
C           5.59321         2.67032         1.54276
N           6.11531         4.61770         2.68211
C           7.32669         5.96820         3.47225
N           6.25778         5.73967         3.33855
N           7.73360         4.86017         2.82398
C           6.83038         3.58291         2.07668
C           7.77088         3.00581         1.73904
N           7.38628         2.07522         1.19458
C           7.83317         0.99862         0.56469
C           6.07982        -0.26975        -0.17740
C           7.88468         0.06124         0.01625
H           2.52019        -1.50900        -0.90245
H           4.43120        -0.50763        -0.31658
H           4.65795        -2.95187        -1.74664
H           7.08003        -0.69539        -0.42642
H           8.43710         7.07952         4.12246
H           5.08728         4.08741         2.37186
H           8.66247         3.20820         1.85746
H           8.83793         1.10010         0.62406
H           5.29239         0.16111         0.07468
H           8.49564        -0.96111        -0.58189

