%chk=OdC1Cdc2sc3cqc21rCdCCdCCd3.chk
%NProcShared=20
# opt freq b3lyp/6-31g(2df,p)

Title Card Required 

0  1
O           1.72776        -0.21764         0.16090
C           3.01832        -0.42125         0.34322
C           3.13714        -1.33380         1.17167
C           4.44608        -0.65753         0.56203
S           5.73845         0.06754        -0.10112
C           7.14845        -0.88173         0.76519
C           6.12753        -1.69493         1.48636
C           4.52044        -1.56112         1.37046
C           7.00894        -2.57022         2.25608
C           7.00551        -3.54081         3.13256
C           8.51397        -4.35049         3.82372
C           8.29981        -3.39548         2.99125
C           8.25093        -1.68604         1.48257
H           2.42939        -1.88038         1.66778
H           8.81977        -2.55599         2.21143
H           6.03855        -3.72645         3.31381
H           9.52970        -4.17916         3.68363
H           7.77731        -4.50447         4.02368
H           8.80556        -0.75130         0.62493

