%chk=Odc1ccc2c3ccccc3cccc-2n1.chk
%NProcShared=20
# opt freq b3lyp/6-31g(2df,p)

Title Card Required 

0  1
O           0.83043         0.15115         0.02266
C           2.04426         0.12261        -0.08152
C           2.81169         1.38720        -0.00235
C           4.11991         1.40121         0.27894
C           4.90498         0.17067         0.24340
C           6.26321         0.07955         0.40064
C           7.06792         1.32642         0.42782
C           8.37836         1.31342         0.13133
C           9.10908         0.07963        -0.04393
C           8.52365        -1.11314         0.14328
C           7.08105        -1.20688         0.40709
C           6.57260        -2.45600         0.53130
C           5.15942        -2.71685         0.44088
C           4.75787        -2.18683        -0.71480
C           4.05137        -0.98501        -0.25153
N           2.76295        -1.00328        -0.36279
H           2.23159         2.28750        -0.14640
H           4.58471         2.35779         0.47479
H           6.60449         2.28893         0.59691
H           8.93416         2.24256         0.04774
H          10.16713         0.14881        -0.27444
H           9.11029        -2.02292         0.05617
H           7.18832        -3.34807         0.41350
H           4.73607        -3.66914         0.73987
H           4.28940        -2.78077        -1.48022

