%chk=OdC1NdC2CdCc3ccccc3CdCCdC2S1.chk
%NProcShared=20
# opt freq b3lyp/6-31g(2df,p)

Title Card Required 

0  1
O           1.43101         0.11334         0.03658
C           2.62642         0.03314         0.18930
N           3.35957        -1.13529         0.16963
C           4.55739        -0.91664         0.61145
C           5.59403        -1.92905         0.51143
C           6.84527        -1.47465         0.43031
C           7.94574        -2.29875         0.80815
C           8.21961        -3.37974        -0.02049
C           9.16697        -4.30409         0.34597
C           9.93110        -4.05755         1.48186
C           9.71981        -2.87903         2.26391
C           8.64733        -1.98029         1.97225
C           8.11795        -0.81727         2.84533
C           7.12497         0.15063         2.80870
C           6.01504         0.81403         1.93117
C           4.96312         0.42214         1.14532
S           3.68359         1.46132         0.50914
H           5.30725        -2.96855         0.53342
H           7.15228        -0.43865         0.35853
H           7.64728        -3.48366        -0.93568
H           9.29099        -5.19182        -0.26631
H          10.68614        -4.80179         1.74445
H          10.41899        -2.74050         3.09120
H           8.71083        -0.82728         3.77532
H           7.08761         0.69691         3.76552
H           6.08662         1.90995         2.00900

