%chk=OdC1CdCdCC2dCc3ccccc3CdCC2dC1.chk
%NProcShared=20
# opt freq b3lyp/6-31g(2df,p)

Title Card Required 

0  1
O           1.93953         0.26174        -0.54161
C           2.99159         0.70803        -0.08452
C           3.25529         0.59320         1.36486
C           4.47668         0.31153         1.63521
C           5.74799         0.11205         1.36515
C           6.26171         0.58826         0.07196
C           7.50375         0.27420        -0.36148
C           8.29024         0.92781        -1.45458
C           8.91295         0.12856        -2.41126
C           9.78204         0.66836        -3.37126
C          10.12302         2.01727        -3.34090
C           9.51842         2.84253        -2.38653
C           8.52127         2.31280        -1.51107
C           7.67255         3.18641        -0.67609
C           6.33276         2.99401        -0.41785
C           5.53446         1.65887        -0.62921
C           4.22354         1.31118        -0.99332
H           2.44945         0.76899         2.07532
H           6.42691        -0.18323         2.14208
H           8.06091        -0.47800         0.17953
H           8.68643        -0.93071        -2.43145
H          10.19423         0.02058        -4.14023
H          10.81646         2.41820        -4.08315
H           9.81070         3.89574        -2.38224
H           8.26518         3.98902        -0.21594
H           5.96136         3.68600         0.33930
H           4.22933         0.29762        -1.49766

