%chk=OdC1CdCCdCNdCC2dCdCC2dNCdN1.chk
%NProcShared=20
# opt freq b3lyp/6-31g(2df,p)

Title Card Required 

0  1
O           1.74828         0.97591        -1.76626
C           2.90271         1.28289        -2.27068
C           3.64552         0.61083        -1.16635
C           4.92009         0.45921        -0.91722
C           5.67946         1.04881        -1.88605
C           6.93534         1.10213        -1.97366
N           7.34345         1.73485        -3.01334
C           8.57419         1.68714        -2.93496
C           9.13360         2.28609        -3.91914
C          10.22756         2.58284        -4.40678
C          10.56875         3.15800        -5.35189
C           8.57535         3.03714        -5.15324
N           7.00352         2.90683        -4.93918
C           5.31102         2.55187        -4.35587
N           3.85689         2.10270        -3.61780
H           3.77416         1.15876        -2.06672
H           5.28824        -0.05208        -0.07706
H           5.28388         1.54463        -2.70078
H           7.53146         0.66026        -1.24758
H           9.25122         1.26071        -2.23425
H          11.77831         2.92802        -4.97397
H           4.88175         3.08019        -5.22401

