%chk=Odc1cccc2cqn1r[SH]dCSCdC2.chk
%NProcShared=20
# opt freq b3lyp/6-31g(2df,p)

Title Card Required 

0  1
O           2.99493        -0.51327         0.13546
C           3.84015        -0.60685        -0.67591
C           3.43347        -0.01192        -2.00280
C           4.59369         0.56363        -2.31489
C           5.69146         0.01931        -3.24087
C           6.92561        -0.05827        -2.62305
C           6.33517        -1.24920        -1.78339
N           5.21844        -1.47278        -0.94710
S           7.32670        -2.78644        -3.08660
C           8.39696        -2.08828        -4.82749
S          10.15095        -2.07314        -4.38983
C           9.76205        -0.54359        -3.59153
C           8.61103        -0.23759        -2.84123
H           2.59048        -0.60589        -2.38048
H           5.09477         0.98184        -1.40766
H           5.22105        -0.87291        -3.73874
H           8.48211        -2.51969        -2.51167
H           8.23701        -1.91852        -5.94666
H           9.85807        -0.21607        -4.61777
H           8.92892        -0.31654        -1.79638

