%chk=OdC1CdCCdCCdNCdCdCdCS1.chk
%NProcShared=20
# opt freq b3lyp/6-31g(2df,p)

Title Card Required 

0  1
O           4.07804         0.35270        -0.12598
C           4.78031        -0.75611         0.18465
C           3.70949        -1.51377         0.39692
C           5.06606        -1.42077         0.37086
C           5.20346        -2.86450         0.77533
C           6.39564        -3.29992         0.89732
C           7.06517        -4.43819         1.21621
N           8.28810        -4.31739         1.18237
C           9.27511        -5.15932         1.41824
C          10.35541        -4.47800         1.22736
C          10.02413        -3.33317         0.90663
C           9.25052        -2.09730         0.56040
S           7.33956        -0.92290         0.23138
H           2.86391        -2.16803         0.58021
H           5.91432         0.01817        -0.03226
H           4.39670        -3.55217         0.96799
H           7.24412        -2.75725         0.74529
H           6.53813        -5.27056         1.44940
H           8.92004        -6.11919         1.68715
H          10.45347        -1.94084         0.51656

