%chk=OdC1CdCCdCCdCCdCCdCCdCCdCS1.chk
%NProcShared=20
# opt freq b3lyp/6-31g(2df,p)

Title Card Required 

0  1
O           4.56235        -0.88366         0.58467
C           6.44972        -1.42155         0.88620
C           4.18556        -1.39116         0.86916
C           5.60490        -1.67821         1.03008
C           5.29367        -2.76333         1.63836
C           6.65445        -2.85780         1.69131
C           7.33220        -3.74451         2.18838
C           8.57777        -4.16808         2.42582
C           9.26050        -4.97087         2.87583
C          10.33722        -4.74057         2.74673
C          10.80622        -5.87882         3.38480
C          11.93929        -5.79257         3.33645
C          13.13583        -6.85270         3.93073
C          14.80899        -6.64309         3.81322
C          13.42439        -5.65256         3.25797
C          11.75801        -4.24476         2.46880
S           9.26502        -2.66147         1.58126
H           2.69494        -1.91807         1.16453
H           5.40348        -0.13033         0.16239
H           4.51138        -3.23185         1.90100
H           7.58062        -1.96204         1.18918
H           6.68885        -4.33648         2.52022
H          10.11327        -3.57176         2.09154
H           8.80646        -5.57607         3.21509
H          11.17685        -3.34483         1.96433
H          10.91628        -6.71805         3.85525
H          13.08416        -4.45406         2.58612
H          13.03767        -7.79711         4.46013
H          15.68398        -5.76851         3.32297
H          14.38207        -7.14290         4.09340
H          13.32174        -5.30119         3.06100

