%chk=Odc1cccc2cc-2sc2c1dNNNNCCCd2.chk
%NProcShared=20
# opt freq b3lyp/6-31g(2df,p)

Title Card Required 

0  1
O           2.33084         2.70391        -0.30046
C           3.48011         2.51142        -0.19547
C           3.63374         0.61674        -0.04876
C           4.37730        -0.56438         0.05225
C           4.85349        -2.01682         0.18069
C           6.18234        -1.97271         0.21489
C           7.35225        -2.55477         0.28440
C           7.48327        -1.12306         0.25043
S           6.95372         0.88080         0.15323
C           6.24167         2.87657         0.46679
C           4.81662         4.12721        -0.11451
N           4.75608         5.69616        -0.35159
N           5.72165         7.34623        -0.37072
N           6.60616         7.24999        -1.48279
N           7.66220         6.44600        -0.87383
C           6.95368         5.21099        -0.67194
C           7.56589         3.86313        -0.63798
C           6.42234         2.81628        -0.85806
H           2.66282         0.03195        -0.01964
H           5.31319        -0.21406        -0.04302
H           4.44616        -3.08203         0.28794
H           7.58405        -3.68444         0.33544
H           6.65409         8.13705        -0.33872
H           5.84953         7.01396        -2.10552
H           7.81148         6.78209         0.10745
H           6.27962         5.13734        -1.55973
H           6.48036         5.37253         0.36625
H           8.12724         3.95769         0.36665
H           8.20806         3.83589        -1.49035
H           5.39074         2.39638        -0.68851

