%chk=Odc1ccc2cccccc-2n[nH]cccccccc[nH]1.chk
%NProcShared=20
# opt freq b3lyp/6-31g(2df,p)

Title Card Required 

0  1
O           1.41860        -0.09813        -1.54617
C           2.59386         0.15641        -2.00988
C           3.19585         0.50806        -0.10486
C           4.18428         0.27225         0.93364
C           4.88199         1.08696         2.30240
C           4.58199         0.79983         3.60059
C           5.16933         1.12289         4.91658
C           6.26844         1.81606         5.24002
C           7.18296         2.46525         4.36041
C           7.14235         2.51053         3.02997
C           6.19127         1.94250         2.00170
N           6.60558         2.26462         0.79701
N           5.86638         1.86415        -0.21883
C           6.05152         2.01177        -1.52792
C           5.27322         1.53662        -2.48122
C           5.62108         1.82298        -3.81102
C           4.82572         1.58565        -4.79645
C           4.88271         1.97307        -6.13877
C           3.69823         1.73126        -6.72974
C           3.97023         0.34371        -6.99566
C           3.41648        -0.33657        -5.63470
N           2.84445        -0.19118        -3.77621
H           2.41034         0.82970         0.85796
H           5.05293        -0.20416         0.54336
H           3.71686         0.16267         3.73206
H           4.62733         0.70829         5.77915
H           6.53178         1.92979         6.29572
H           8.01022         2.98859         4.84824
H           7.96522         3.07817         2.57145
H           4.92537         1.60313        -0.06922
H           6.90442         2.58871        -1.78160
H           4.42067         0.95437        -2.23499
H           6.44949         2.38988        -4.12788
H           3.90191         1.18459        -4.52749
H           5.82320         2.08082        -6.68114
H           2.67280         1.55545        -6.30149
H           4.52727         1.00277        -8.07956
H           2.79928        -0.51082        -6.79031
H           3.58516        -0.80455        -3.43010

