%chk=Odc1ccnc2cqn1rOCdCCdCCdNO2.chk
%NProcShared=20
# opt freq b3lyp/6-31g(2df,p)

Title Card Required 

0  1
O           1.74583         0.01690        -0.12116
C           3.08013         0.05713        -0.18636
C           3.29219         0.84711        -1.46686
C           4.77157         1.03014        -1.76353
N           5.98452         1.62389        -2.72594
C           7.74529         1.40492        -2.37101
C           6.37676         0.86523        -1.49623
N           4.80356         0.21151        -0.43661
O           7.59010         1.70300        -2.85419
C           8.51667         2.53698        -4.20599
C           9.87523         2.59182        -4.29488
C          11.16744         3.27705        -5.40557
C          12.65781         2.76782        -4.58017
C          11.90713         3.29365        -5.43249
N          11.50704         2.37342        -3.94088
O           9.63626         1.68128        -2.81897
H           2.32180         1.11850        -1.90676
H           5.95807         0.26700        -0.52655
H           8.28536         3.06538        -5.06248
H          10.83373         1.83339        -3.06553
H          10.68004         3.87132        -6.36884
H          13.73199         2.71984        -4.50239
H          12.80118         3.95414        -6.50308

