%chk=OdC1CC12CdCCdNN2c1cccs1.chk
%NProcShared=20
# opt freq b3lyp/6-31g(2df,p)

Title Card Required 

0  1
O           0.79326        -0.08419        -0.06331
C           1.98499        -0.07949         0.03411
C           2.97146         0.84806         0.32326
C           3.13420        -0.90877        -0.15476
C           2.90277        -2.18337         0.58944
C           3.07647        -3.38793         0.00198
C           3.59000        -3.39100        -1.38727
N           3.87029        -2.35502        -2.10816
N           3.64163        -1.12374        -1.55378
C           4.06362         0.01504        -2.15766
C           5.00513         0.89153        -1.64438
C           4.88578         2.19183        -2.20539
C           3.92843         2.23472        -3.19352
S           3.17184         0.72079        -3.43986
H           3.17588         1.27704         1.28687
H           2.96950         1.64664        -0.42396
H           2.48035        -2.18854         1.59139
H           2.86044        -4.35564         0.44201
H           3.75217        -4.39396        -1.82917
H           5.57914         0.66336        -0.75136
H           5.41863         3.06015        -1.84207
H           3.60526         3.09076        -3.76485

