%chk=OdC1CC2CdCC3dCCdCC3dCNdNCqOrdC12.chk
%NProcShared=20
# opt freq b3lyp/6-31g(2df,p)

Title Card Required 

0  1
O           1.31561        -0.37166         0.21399
C           2.52135        -0.33087         0.11453
C           3.49515         0.83998         0.11190
C           4.42736        -0.04349        -0.71780
C           4.41981         0.23044        -2.14507
C           5.27366        -0.52891        -2.82031
C           5.09715        -0.76918        -4.19475
C           5.12539         0.18128        -5.13753
C           5.02479        -0.45088        -6.42601
C           4.89901        -1.79184        -6.26828
C           4.87308        -2.06909        -4.81217
C           4.67675        -3.18027        -4.03883
N           4.75632        -3.16408        -2.60380
N           3.70735        -3.28437        -1.90123
C           3.43556        -2.59575        -0.67398
O           2.55108        -3.22884         0.20288
C           3.57670        -1.26872        -0.38780
H           3.84632         1.12921         1.10705
H           3.15027         1.75141        -0.39527
H           5.44147        -0.03322        -0.29572
H           3.64497         0.81850        -2.62792
H           5.92608        -1.22756        -2.29699
H           5.25106         1.23415        -4.93713
H           5.08757         0.13212        -7.33549
H           4.84742        -2.47493        -7.10142
H           4.58199        -4.14387        -4.54422
H           3.02188        -3.94594         0.66278

