%chk=OdCC1dCCdCCdCSSC1CCCNCS.chk
%NProcShared=20
# opt freq b3lyp/6-31g(2df,p)

Title Card Required 

0  1
O           1.22489         0.07444        -0.25121
C           2.44639         0.16897        -0.35923
C           3.48393         1.06576        -1.46996
C           4.55906         0.54075        -0.82770
C           5.57793         1.10678        -1.50472
C           6.79822         1.05844        -1.55770
C           6.94911         1.70872        -2.74753
C           8.13297         2.15254        -2.97581
S           7.87557         3.23448        -4.23299
S           5.31286         3.51307        -4.03618
C           3.54088         2.26929        -2.88935
C           1.77267         1.81756        -2.42848
C           0.36006         2.28980        -3.07372
C          -1.28651         1.99685        -2.71030
N          -2.14368         2.78588        -3.69510
C          -3.59782         2.64450        -3.50245
S          -4.55469         3.55995        -4.77922
H           2.97506        -0.45981         0.42582
H           4.89495        -0.08046        -0.07575
H           5.11356         1.83743        -2.09052
H           7.49823         0.57624        -0.92757
H           6.02710         1.79138        -3.37545
H           8.93923         1.75726        -2.34056
H           2.97321         2.73146        -3.70411
H           1.56267         2.04700        -1.34270
H           1.58333         0.68133        -2.42572
H           0.41044         1.88375        -4.07948
H           0.40460         3.36113        -2.92599
H          -1.60221         2.34272        -1.71042
H          -1.60608         0.94354        -2.80801
H          -1.94891         2.46058        -4.64205
H          -3.91738         2.99519        -2.51714
H          -3.90684         1.59746        -3.60676
H          -4.17518         4.82927        -4.54276

