%chk=OdCCCdC1CdCCdC1c1cccs1.chk
%NProcShared=20
# opt freq b3lyp/6-31g(2df,p)

Title Card Required 

0  1
O           1.10677        -1.05800        -0.16507
C           2.29054        -0.92266         0.06175
C           3.35655        -1.59084        -0.70789
C           4.66695        -0.89090        -0.49875
C           4.94747         0.42190        -0.35642
C           6.33654         0.85283        -0.19850
C           6.34128         2.19303        -0.25183
C           4.97529         2.67825        -0.36769
C           4.09727         1.65270        -0.37643
C           2.67619         1.89987        -0.29545
C           1.80056         1.75125         0.78728
C           0.43104         1.60540         0.38037
C           0.25712         1.93126        -0.94221
S           1.74844         2.33056        -1.69419
H           2.68099        -0.39910         0.95419
H           3.07893        -1.67540        -1.75995
H           3.36596        -2.57079        -0.22056
H           5.49132        -1.60817        -0.45525
H           7.20337         0.21990        -0.06529
H           7.21210         2.82637        -0.16717
H           4.73193         3.72943        -0.36755
H           2.11981         1.43220         1.77481
H          -0.34563         1.14163         0.98504
H          -0.66428         1.86719        -1.50841

