%chk=OdCC1dCCdCCdCNCdNCdCCdCCdNNNdC1c1ccccc1.chk
%NProcShared=20
# opt freq b3lyp/6-31g(2df,p)

Title Card Required 

0  1
O           2.25458         0.50515         0.38606
C           3.95803         1.20822         0.98559
C           5.96443         2.68950         2.20438
C           4.91034         1.30577         1.05426
C           5.41717         2.09160         1.68990
C           7.16921         1.88890         1.52419
C           7.55218         3.01030         2.44665
C           8.80540         2.96889         2.41527
N           9.75686         3.90352         3.18524
C          10.87576         3.76558         3.09671
N          11.84891         4.37209         3.36781
C          13.39244         5.06576         3.60803
C          12.58024         4.69473         4.36632
C          14.59865         5.12039         4.41928
C          14.90477         6.75111         5.61591
C          16.30916         6.49119         5.47481
N          15.97683         7.17528         5.73114
N          13.49962         6.05681         4.89447
N          10.66226         5.13134         4.19855
C           8.03528         4.16435         3.44852
C           5.10288         3.44526         2.93393
C           2.52773         3.44696         2.33914
C           0.10877         3.20260         1.99761
C          -1.62615         2.05991         1.90612
C           0.31536         1.37409         2.12698
C           2.69858         2.18259         2.46710
H           3.15340        -0.22951        -0.20704
H           5.05520         0.33846         0.25616
H           4.53634         2.54553         1.94269
H           7.17580         1.22511         0.98812
H           6.81225         3.75375         3.06148
H           9.28186         2.33947         1.90167
H           9.23315         4.98844         4.07399
H          11.47567         3.28306         2.68116
H          13.61540         4.17342         3.39981
H          12.16976         6.12315         5.07325
H          15.74662         5.06759         4.15336
H          15.24322         7.63504         6.26687
H          17.82033         5.98264         4.90476
H          15.67556         5.89964         4.76394
H           0.94560         4.04169         1.42026
H          -1.57047         4.00204         2.05090
H          -2.91333         2.02398         1.88313
H          -1.31530         0.19148         2.08808
H           1.36254         0.74670         1.98117

