%chk=OdCC1dCC2dCqCNdCCdC1rSC2.chk
%NProcShared=20
# opt freq b3lyp/6-31g(2df,p)

Title Card Required 

0  1
O           1.75130         0.40819        -1.07184
C           2.87552         0.00438        -1.04878
C           4.23392         0.48549        -1.84174
C           4.71639         1.16995        -0.79067
C           5.50216         2.38547        -1.03195
C           6.72984         2.24123        -1.57238
C           7.46947         0.87498        -1.70113
N           8.51494         0.89540        -2.68152
C           7.82026         0.41759        -3.67898
C           6.19905         0.78933        -3.97224
C           4.88797         0.83933        -3.34369
S           6.77077         3.74593        -2.47661
C           5.10484         3.67153        -1.75974
H           3.14220        -0.56780        -0.09756
H           4.89452         0.57925         0.11009
H           6.76724         0.04596        -1.98413
H           7.72385         0.33150        -0.79748
H           8.36837        -0.35168        -4.26055
H           6.45196         1.52280        -4.77535
H           4.26810         1.64790        -3.76413
H           4.25918         3.61958        -2.47196
H           4.85776         4.51059        -1.10145

