%chk=OdCC1dCCdCSSC2dCCdCNdCC2dC1NdO.chk
%NProcShared=20
# opt freq b3lyp/6-31g(2df,p)

Title Card Required 

0  1
O           1.53806        -0.37893        -0.48975
C           2.81060        -0.68813        -0.68325
C           4.00818        -1.87082        -1.87579
C           4.72550        -0.96620        -1.18053
C           5.57231        -0.96228        -2.23528
C           6.81495        -1.31632        -2.08676
S           7.71705        -1.19961        -3.47283
S           9.36759        -2.09040        -2.86543
C           8.82017        -2.95274        -4.24561
C          10.28882        -2.67434        -5.07914
C          11.46617        -3.01666        -6.31812
C          11.33717        -4.30973        -6.56586
N          10.00811        -4.89857        -5.69344
C           8.54205        -4.70257        -4.84762
C           7.00787        -3.65335        -3.86961
C           5.25404        -3.00558        -3.05834
N           3.53167        -3.20852        -3.26958
O           2.25021        -2.45931        -3.07343
H           3.10986         0.21328         0.28812
H           4.85434        -0.16813        -0.43551
H           5.08541        -1.07690        -3.23658
H           7.22242        -0.99399        -1.19295
H          11.02645        -1.66224        -5.00881
H          12.26494        -2.35229        -6.91614
H          12.21334        -4.62188        -7.53258
H           9.26463        -5.88797        -4.64594

