%chk=OdCCSC1dNCdCSSCNdCC1dS.chk
%NProcShared=20
# opt freq b3lyp/6-31g(2df,p)

Title Card Required 

0  1
O           1.08516        -0.07966         0.04495
C           2.33904        -0.04799         0.06426
C           3.22995         1.15860         0.79989
S           5.53890         1.57143         1.05159
C           7.05367         3.16239         2.02155
N           7.52404         2.11976         1.38589
C           8.17315         3.03598         1.94449
C           9.37565         2.71633         1.74960
S          10.61122         3.40432         2.16905
S          12.33753         3.68788         2.34193
C          11.57894         5.76996         3.61133
N          12.70490         4.83804         3.04316
C          10.94307         5.19694         3.26197
C           8.86645         4.43702         2.79867
S           6.29304         4.30355         2.71729
H           2.85341        -0.86770        -0.43550
H           2.81222         1.07185         1.79997
H           2.81222         2.00787         0.26471
H           7.66829         4.41520         2.78537
H           9.84104         2.00638         1.31676
H          12.47665         5.60557         4.71707
H          12.47664         6.67759         2.95873
H          12.76714         5.26978         3.30638

