%chk=OdCC1dCCdCCdCCqNNdOrdC1.chk
%NProcShared=20
# opt freq b3lyp/6-31g(2df,p)

Title Card Required 

0  1
O           1.11303        -0.15966         0.02998
C           2.34181        -0.13836         0.07718
C           3.19058        -1.08963         0.89792
C           2.69246        -2.32932         0.85509
C           3.13763        -3.62572         1.26787
C           4.24653        -4.10052         1.82562
C           5.41307        -3.49607         2.36341
C           5.84018        -2.25093         2.54637
C           5.42382        -0.89465         2.24377
N           6.28393         0.10302         2.74354
N           7.36485        -0.06960         3.50975
O           7.89324         1.00375         3.80393
C           4.35129        -0.49166         1.52660
H           2.91576         0.59868        -0.50962
H           1.72408        -2.44710         0.35377
H           2.41163        -4.39897         1.00234
H           4.28564        -5.18916         1.92559
H           6.10135        -4.25483         2.75228
H           6.78753        -2.27456         3.08838
H           6.03079         1.07067         2.58124
H           4.29036         0.59484         1.40147

