%chk=OdCC1dC2CdCCdCCdCCdCCqdNNdCdC1rCdN2.chk
%NProcShared=20
# opt freq b3lyp/6-31g(2df,p)

Title Card Required 

0  1
O           1.81995        -0.23128        -0.35378
C           3.43268        -0.61590        -0.86423
C           5.35713        -1.49012        -2.02445
C           7.44365        -1.52587        -2.07189
C           5.45547        -1.63023        -2.21040
C           7.06570        -1.66386        -2.25502
C           7.43750        -2.50117        -3.36627
C           8.51943        -2.68114        -3.60510
C           9.22722        -3.19912        -4.29254
C          10.33264        -3.35674        -4.50174
C          11.28588        -3.87103        -5.18427
C          11.90544        -3.20425        -4.29935
C          12.01660        -4.09528        -5.48189
N          10.76079        -4.92392        -6.58162
N           8.63546        -4.43348        -5.93072
C           7.18799        -3.78069        -5.06438
C           5.68693        -2.90084        -3.89668
C          11.42446        -2.73076        -3.67096
N           9.68864        -1.94200        -2.62415
H           3.01785         0.38395         0.46272
H           4.77721        -2.22218        -2.99600
H           7.72786        -0.74248        -1.03222
H           7.05957        -2.92491        -3.92863
H           9.69987        -2.67309        -3.59442
H           8.87986        -3.62900        -4.86306
H          10.73122        -2.23558        -3.01378
H          10.50210        -4.16780        -5.57813
H          13.21079        -2.71171        -3.64568
H           4.02621        -2.75023        -3.69681
H          13.13798        -3.37530        -4.52636

