%chk=OdCC1dCCdCNdCCdC2CdCNdNCdCCdC12.chk
%NProcShared=20
# opt freq b3lyp/6-31g(2df,p)

Title Card Required 

0  1
O           3.99403         1.09775        -0.80573
C           5.73856         1.53107        -1.09919
C           8.30241         2.44778        -1.84034
C           6.37281         1.70697        -1.27503
C           5.73884         2.80855        -2.08150
C           6.99878         1.96206        -1.44284
N           7.30879         3.49281        -2.58882
C           9.05570         3.43052        -2.53898
C           8.95631         4.31621        -3.20567
C          10.10179         4.50199        -3.34390
C          10.83724         5.24421        -3.89785
C          12.04194         5.47112        -4.06731
N          13.29180         6.81043        -5.06607
N          12.54235         6.33360        -4.71023
C          14.37844         6.91567        -5.14439
C          14.81705         5.71372        -4.24227
C          12.81745         4.61665        -3.42836
C          10.65138         3.60779        -2.69351
H           4.22763         0.51948        -0.37258
H           5.37200         0.47831        -0.34497
H           4.60372         2.78031        -2.06021
H           7.30817         0.92543        -0.67697
H           9.52795         2.30760        -1.70159
H           8.64080         4.95450        -3.68176
H          10.77440         5.98323        -4.44898
H          12.68016         3.78636        -2.81082
H          14.92717         7.92669        -5.89852
H          16.58952         6.29970        -4.68479
H          14.25272         5.55518        -4.12529

