%chk=OdCc1cccc2cscc2ccc2c1dCdCCd2.chk
%NProcShared=20
# opt freq b3lyp/6-31g(2df,p)

Title Card Required 

0  1
O           2.62266        -0.74230         0.81498
C           3.72143        -0.25293         1.18022
C           5.09122        -1.02912         1.04678
C           4.96380        -1.21652        -0.27608
C           5.43803        -2.06890        -1.33879
C           6.62881        -1.90156        -1.89639
C           7.36924        -3.00369        -2.44342
C           7.15562        -3.44166        -3.72126
S           8.20291        -4.72518        -4.11838
C           8.92059        -4.72313        -2.55010
C           8.36923        -3.77740        -1.70502
C           8.71930        -3.62505        -0.27557
C           7.94966        -2.85486         0.50258
C           7.61524        -2.11366         1.71903
C           6.39759        -1.39923         2.04488
C           6.70884        -1.13078         3.41256
C           8.06651        -1.48758         3.58875
C           8.50489        -1.28379         2.32898
H           3.75318         0.85068         1.17701
H           4.84565        -0.23364        -0.75790
H           4.74546        -2.84737        -1.67323
H           7.24232        -1.06476        -1.54127
H           6.44003        -3.05580        -4.43655
H           9.68747        -5.45916        -2.35813
H           9.55030        -4.21314         0.11088
H           7.28261        -2.28870        -0.04669
H           8.74238        -1.62547         4.43438
H           8.83468        -0.33927         1.88301

