%chk=OdCN1CdCNdCc2cccqs2rCCC1dO.chk
%NProcShared=20
# opt freq b3lyp/6-31g(2df,p)

Title Card Required 

0  1
O           1.81826        -0.83083         0.46782
C           3.08056        -1.13887         0.36942
N           4.66631        -2.11175         1.03035
C           4.91475        -0.74868         1.14830
C           5.44625        -0.74515         2.32289
N           6.74811        -0.99973         2.13967
C           7.28028        -1.72076         3.04003
C           8.66766        -1.67226         2.97853
C           9.57401        -0.75259         2.55978
C          10.87906        -1.18373         2.70393
C          10.79547        -2.49782         2.86171
S           9.59218        -2.43411         4.15312
C          10.26500        -3.81071         2.66768
C           8.19239        -3.89430         2.38307
C           6.02605        -3.25342         1.79247
O           5.01533        -3.53815         2.60930
H           3.24702        -0.06619        -0.38632
H           5.07877        -0.30591         0.16666
H           4.74653        -1.22354         3.06742
H           6.76964        -2.44361         3.75405
H           9.21853         0.21893         2.42569
H          11.83853        -0.71965         2.65775
H          11.26278        -3.88042         3.73675
H          11.47780        -4.05490         2.18639
H           8.52643        -4.56288         3.52517
H           8.83143        -4.98192         2.26389

