%chk=OdCqOrC1dCCdC2CdCCdCCdC2NdC1O.chk
%NProcShared=20
# opt freq b3lyp/6-31g(2df,p)

Title Card Required 

0  1
O           1.07889        -0.04958        -0.05025
C           2.30662        -0.07706        -0.02511
O           2.98875         0.75090         0.79579
C           3.10477        -0.89624        -0.98678
C           2.51791        -0.82300        -2.17702
C           2.89180        -1.38635        -3.37340
C           3.90151        -2.15240        -3.62681
C           3.76156        -2.89858        -4.80600
C           3.37072        -2.38152        -5.99646
C           4.35267        -3.11862        -7.44363
C           4.99895        -2.79308        -6.40427
C           5.83493        -2.89215        -4.47071
C           5.05683        -2.58042        -3.06996
N           5.19046        -2.43993        -1.53005
C           4.36755        -1.71193        -0.74301
O           4.53543        -1.49829         0.63476
H           3.96189         0.69373         0.79358
H           1.60930        -0.28105        -2.38309
H           2.29684        -1.20509        -4.24379
H           4.76648        -3.99490        -5.15667
H           2.51745        -1.71634        -6.12836
H           5.05498        -3.86159        -7.84479
H           3.80021        -2.77004        -7.35122
H           6.42111        -3.73439        -3.89184
H           5.28583        -1.93889         1.06571

