%chk=ON1C2dCCdCCdCd[SH]CdCCdC21.chk
%NProcShared=20
# opt freq b3lyp/6-31g(2df,p)

Title Card Required 

0  1
O           1.60150        -0.36285         0.14530
N           2.76108        -0.86340         0.77650
C           3.83359        -1.21573        -0.05303
C           4.15681        -2.08285        -0.94055
C           3.42000        -3.35683        -0.97446
C           4.08519        -4.49730        -0.98839
C           3.38563        -5.75934        -0.92155
C           4.15817        -6.80279        -0.81323
S           4.85680        -7.87113         0.12562
C           3.95739        -6.57728         1.58714
C           4.34694        -5.16469         1.54831
C           4.06838        -3.31296         1.66259
C           3.47621        -2.00943         1.21196
H           0.91553        -1.04541         0.10250
H           5.26013        -2.14018        -0.89015
H           2.44060        -3.36458        -0.44251
H           5.14372        -4.45371        -0.64593
H           2.49607        -5.72947        -0.24276
H           6.12162        -7.80664         0.50348
H           3.21910        -7.39918         1.73217
H           5.38654        -5.43094         1.25746
H           5.12769        -2.87390         1.56103

