%chk=ONC1dCdCCdCCdCCdC2CdCC2dC1.chk
%NProcShared=20
# opt freq b3lyp/6-31g(2df,p)

Title Card Required 

0  1
O           1.21392         0.13222         0.09355
N           3.09443        -0.00615         0.01893
C           5.00927         0.39481        -0.12484
C           5.22645        -0.07268         1.16905
C           6.38022         0.32828         1.47646
C           6.98442        -0.69052         0.55573
C           8.15767        -0.08200         0.56676
C           8.43317        -1.29220        -0.21439
C           9.75006        -1.39881        -0.34270
C           9.82949        -1.86612        -2.07224
C          10.37461        -0.84858        -1.53303
C          12.08089        -0.59547        -1.14354
C          10.95621         0.24928        -1.64632
C           8.91026         0.43693        -1.44972
C           6.89419         0.68429        -1.03769
H           0.71192        -0.50233        -0.60320
H           2.88258        -0.59935        -0.74403
H           6.43498         1.36197         1.97320
H           6.23578        -0.97262        -0.67617
H           8.67925         0.68127         1.14785
H           7.94019        -1.39131        -1.48371
H          10.41583        -0.17384         0.14402
H          10.26744        -2.24574        -3.01174
H          13.09629        -0.30545        -0.38998
H          12.18915        -0.83379        -1.91040
H           5.72227         1.19711        -0.21520

