%chk=ONCCCCCC1dCCdCCdCCdCCdCS1.chk
%NProcShared=20
# opt freq b3lyp/6-31g(2df,p)

Title Card Required 

0  1
O           1.04909         0.00332         0.06520
N           2.48159        -0.03044         0.05746
C           2.93751         0.76695         1.19137
C           4.45332         0.77799         1.20751
C           4.98876         1.59260         2.38922
C           6.59654         1.60570         2.40824
C           8.03531         2.46541         3.65547
C          10.32924         2.64788         3.92010
C           9.26485         3.14998         4.64851
C          10.59565         3.23726         4.77512
C          11.25298         3.86321         5.68318
C          12.89887         4.13730         6.08083
C          13.41945         4.75813         6.98145
C          13.91020         4.16735         6.12436
C          15.12591         4.87338         7.14864
C          16.81515         4.76646         6.99354
C          15.31600         4.18683         6.15266
S          13.07261         3.13826         4.63148
H           0.76138        -0.53911        -0.69453
H           2.78516         0.40618        -0.81211
H           2.57686         0.33607         2.12056
H           2.57631         1.78860         1.11929
H           4.82134         1.20886         0.27959
H           4.82117        -0.24256         1.27996
H           4.60686         1.15187         3.30324
H           4.60685         2.60361         2.30252
H           6.85225         2.02434         1.45482
H           6.85225         0.56572         2.46028
H           6.76623         1.98207         4.47315
H           6.76623         3.40159         3.49464
H           8.65398         3.61774         5.32711
H          11.56251         2.85384         4.21896
H          10.79153         4.32517         6.35338
H          14.29661         3.46503         5.10561
H          12.86398         5.10049         7.47813
H          15.40520         3.50646         5.16567
H          15.22860         5.57894         8.17220
H          17.85571         4.53356         6.65567
H          16.51799         4.98860         7.31580

