%chk=ONCCOc1ccc2nnccccc-2ns1.chk
%NProcShared=20
# opt freq b3lyp/6-31g(2df,p)

Title Card Required 

0  1
O           0.98078        -0.11040         0.02139
N           2.43312        -0.06332         0.10044
C           2.88480         0.37388        -1.23436
C           4.42921         0.39985        -1.31522
O           4.83355         0.87835        -2.69745
C           6.22987         0.97178        -2.97669
C           6.96819         1.46226        -4.42336
C           9.03839         1.52731        -4.59287
C           9.52707         1.95029        -5.75146
N          10.71276         1.79706        -5.31835
N          11.06503         2.13988        -6.31603
C          12.18785         2.30006        -6.77669
C          11.74372         2.76509        -8.10920
C          13.01201         2.94080        -8.61437
C          11.29878         2.85048        -8.35677
C           9.39783         2.51673        -7.40241
N           8.01638         2.14677        -6.34219
S           7.27484         1.45084        -4.23681
H           0.70976        -0.35961         0.92813
H           2.70952        -1.04177         0.22329
H           2.51021         1.38048        -1.44687
H           2.50770        -0.28979        -2.02321
H           4.78702        -0.62194        -1.09333
H           4.78787         1.06127        -0.50680
H           5.79913         1.74117        -5.18314
H           9.37771         1.18894        -3.58860
H          13.00407         2.10131        -6.20469
H          10.98450         3.28855        -9.60987
H          14.10073         2.74930        -8.06451
H          12.28299         3.27531        -9.57821

