%chk=OOc1cccccnc2cccccc1-2.chk
%NProcShared=20
# opt freq b3lyp/6-31g(2df,p)

Title Card Required 

0  1
O           2.87493        -0.27635         0.82372
O           5.04609        -0.61503         2.03453
C           7.04252        -1.01367         3.38938
C           5.67964        -0.52409         1.79127
C           6.27258        -0.82354         2.96312
C           8.32036        -0.72123         2.78613
C           7.73145        -1.24978         4.68454
C           8.73086        -0.87433         3.17565
N           9.36567        -1.31715         4.82218
C          10.74666        -1.21362         4.38471
C          10.35178        -1.50184         5.50273
C          12.55993        -1.32298         4.81653
C          12.29948        -1.79539         6.57097
C          13.64723        -1.76974         6.41893
C          11.62516        -1.65784         5.92365
C           9.32559        -1.30306         4.57201
H           1.51997        -0.00510        -0.17780
H           5.10762        -0.14777         0.36719
H           4.76572        -0.95591         3.42113
H           7.41131        -0.46939         1.60115
H           6.62604        -1.31280         4.76407
H           9.74686        -0.76676         2.65847
H          10.76104        -1.91261         7.01995
H          13.69661        -1.38387         5.02472
H          13.01678        -2.19414         8.07918
H          15.39858        -1.74236         6.39041
H          13.42264        -1.89045         6.92873

