%chk=SC1dCCdC2NCdCCdNCdCCdC1S2.chk
%NProcShared=20
# opt freq b3lyp/6-31g(2df,p)

Title Card Required 

0  1
S           3.28161         1.08067        -0.76636
C           4.97196         2.72909        -1.78742
C           4.16346         1.36034        -1.19680
C           5.45441         0.94952        -0.91303
C           6.34444         1.62949        -1.54836
N           7.55978         1.73377        -1.50386
C           8.33845         2.36536        -2.24882
C           9.55435         2.52550        -2.11609
C           9.95111         3.06481        -3.36047
N          11.21553         3.31709        -3.15966
C          11.28419         4.08263        -4.36065
C          11.13587         4.65954        -3.07928
C           8.89372         4.54889        -2.58296
C           7.06732         3.84167        -2.26991
S           5.24794         3.26285        -2.76595
H           1.78379        -0.04477        -0.06352
H           3.05908         2.18678        -1.87659
H           5.50952         0.16401        -0.24885
H           7.69882         1.02342        -0.91804
H           8.22817         3.24289        -3.20306
H           9.98165         1.87140        -1.56735
H           8.99704         4.04634        -4.18169
H          11.03929         5.41051        -4.78196
H          12.80648         4.31596        -3.25489
H          10.31673         5.20165        -3.26992

