%chk=SC1dCCdCCdC2SCdC[SH]12.chk
%NProcShared=20
# opt freq b3lyp/6-31g(2df,p)

Title Card Required 

0  1
S           1.04155         0.06402        -0.20806
C           2.80453         0.05208        -0.19459
C           3.45570         1.21849        -0.14115
C           4.86732         1.54119        -0.11054
C           5.93548         0.78008         0.02050
C           6.04962        -0.61630         0.32486
C           5.12346        -1.45594         0.79287
S           5.57822        -3.14043         0.91657
C           5.15538        -3.17558        -0.79546
C           4.02912        -2.52684        -1.19617
S           3.54737        -1.45405         0.10152
H           0.77579         1.37455        -0.08028
H           2.86209         2.13774        -0.14361
H           5.06113         2.61431        -0.20539
H           6.91551         1.25707        -0.04888
H           7.05629        -1.01314         0.16402
H           6.00221        -3.39095        -1.43895
H           3.65731        -2.46635        -2.21316
H           2.81960        -2.10197         1.01385

