%chk=SC1dC2CdCCdCCdCCdCCCCCCdCdC12.chk
%NProcShared=20
# opt freq b3lyp/6-31g(2df,p)

Title Card Required 

0  1
S           3.62950        -0.99358         1.34134
C           5.92333        -2.26111         2.92995
C           6.68520        -1.90478         2.48338
C           5.47973        -0.92433         1.25455
C           6.39617        -1.41657         1.87149
C           7.80876        -1.18211         1.57763
C           8.31988        -1.86121         2.42876
C           9.51074        -2.03512         2.64673
C          10.11071        -2.67712         3.45136
C          11.57854        -2.72293         3.50877
C          12.19422        -3.43922         4.40652
C          13.61506        -3.30916         4.24351
C          14.35190        -4.00250         5.11250
C          15.63136        -4.13607         5.27989
C          14.88582        -5.04925         6.42441
C          12.60586        -4.40733         5.61988
C          10.45741        -3.66395         4.68818
C           8.36171        -3.01503         3.87486
H           1.82889         0.04143         0.04415
H           5.47921        -0.15592         0.29149
H           4.87581        -2.34359         3.03335
H           7.71214        -0.68210         0.95096
H           7.47507        -2.46129         3.18086
H           9.93169        -1.54061         2.02694
H           9.33887        -3.47674         4.45354
H          12.12202        -2.26483         2.93463
H          11.16063        -4.37587         5.58044
H          14.08532        -2.58254         4.79835
H          14.08532        -4.01149         3.65823
H          13.91727        -5.56814         5.40023
H          13.91727        -3.93542         6.70294
H          16.12841        -3.50218         5.92190
H          16.12841        -4.90279         4.80438
H          15.86262        -6.39780         6.71983
H          15.86262        -5.03787         7.80489
H          14.51853        -4.82341         6.14136

