%chk=SC1dCCdCCdCc2cscccccnncc1c2.chk
%NProcShared=20
# opt freq b3lyp/6-31g(2df,p)

Title Card Required 

0  1
S           5.37226        -1.01966        -1.14286
C           8.30706        -1.73949        -1.97624
C           6.07859        -1.46924        -1.66715
C           6.79873        -0.53976        -0.59603
C           6.28317        -1.84390        -2.17577
C           7.05612        -2.43721        -2.65327
C           8.14931        -2.80621        -3.26538
C           9.49951        -2.55311        -2.91856
C           9.83300        -3.39664        -3.89043
S          11.58165        -3.56337        -4.07938
C          12.38459        -4.38034        -5.02554
C          13.66449        -4.38482        -5.02483
C          14.53697        -5.17823        -5.94157
C          15.94989        -5.27450        -6.05541
C          16.83918        -5.93993        -6.82371
N          17.00149        -5.10596        -5.88777
N          15.16832        -3.94570        -4.72235
C          13.32378        -3.22193        -3.74006
C          10.73058        -2.40661        -2.75442
C          10.24830        -1.67900        -1.90799
H           3.44827        -0.34227        -0.36550
H           4.15655        -1.54394        -1.75268
H           5.71340         0.02822         0.06194
H           5.04309        -2.33623        -2.66747
H           7.56266        -1.14449        -1.28672
H           7.28196        -3.10012        -3.54872
H           9.46956        -3.93124        -4.50805
H          12.02265        -4.91498        -5.64347
H          14.61497        -3.33629        -3.81747
H          14.17695        -5.71446        -6.56630
H          16.86894        -4.34155        -4.97840
H          16.42020        -6.50495        -7.48004
H          14.93572        -4.11557        -4.47466
H          11.20745        -1.51255        -1.71636

