%chk=SCC1dCNdCCdCCdCNN[N]1.chk
%NProcShared=20
# opt freq b3lyp/6-31g(2df,p)

Title Card Required 

0  2
S           1.44252        -0.33343        -0.50276
C           3.58399        -0.84075        -1.14518
C           4.82111        -1.83526        -2.62957
C           5.16727        -1.22182        -1.42318
N           5.63847        -2.50924        -1.10710
C           6.85664        -2.66754        -1.50486
C           7.20171        -3.98774        -2.11039
C           8.48583        -4.06031        -2.39678
C           8.58223        -5.39445        -2.99914
C           9.77253        -5.42206        -3.54904
N           9.14095        -5.26527        -4.78551
N           7.76199        -3.83190        -4.70826
N           6.04726        -2.73167        -3.70172
H           0.87618         0.84503         0.53795
H           3.62080        -0.67633         0.21760
H           3.56557         0.42023        -0.95345
H           5.63369        -0.79157        -0.52385
H           7.49092        -1.75015        -1.50083
H           6.53287        -4.61172        -2.98365
H           9.15031        -3.15067        -2.43581
H           7.73256        -5.79816        -3.90921
H          10.58599        -4.68730        -3.40274
H           9.52342        -6.31748        -5.25996
H           9.00189        -3.68686        -4.81795

