%chk=SCCdC1CdCCdCCdCCdCCdCCdC1.chk
%NProcShared=20
# opt freq b3lyp/6-31g(2df,p)

Title Card Required 

0  1
S           1.08093         0.06899        -0.05142
C           3.37491         0.42092         0.15590
C           4.90618         1.89527         1.02449
C           6.67432         2.92062         1.62855
C           5.17797         2.86375         1.59504
C           6.53545         3.22176         1.80595
C           7.01668         4.44639         2.52742
C           8.23017         5.02564         2.86867
C           8.40567         5.97934         3.43052
C           9.30220         5.45851         3.12369
C          10.27996         6.93991         3.99642
C          12.15641         6.30450         3.62208
C          11.70765         8.18978         4.73275
C          12.24903         7.07666         4.07698
C          10.65641         5.47088         3.13098
C           8.95787         4.01273         2.27194
H           0.62608        -1.08299        -0.73009
H           3.25162         0.05526        -1.07347
H           3.25162        -0.83163         0.43195
H           3.14651         1.94809         1.05560
H           4.47497         3.46835         1.95123
H           7.89410         2.90105         1.61702
H           6.26428         4.89775         2.79332
H           9.97510         4.08117         2.31226
H           8.03187         6.55659         3.77059
H          10.84266         4.49938         2.55863
H           9.96243         7.84383         4.52894
H          13.25774         6.25792         3.59464
H          11.95510         9.16607         5.30791
H          13.90014         7.77644         4.48924
H          11.48013         7.07898         4.07835
H           8.91664         2.62086         1.45195

