%chk=SCCdC1CdCSNdCCdC2CdCCdCCdC2CdC1.chk
%NProcShared=20
# opt freq b3lyp/6-31g(2df,p)

Title Card Required 

0  1
S           1.01572         0.01313         0.01879
C           3.08609         0.09387         0.02873
C           4.17901         1.51534         0.89301
C           5.69919         2.50575         1.15957
C           5.07523         2.49031         2.41288
C           6.21238         2.18506         3.06050
S           6.90418         3.39493         4.15487
N           8.83559         3.07248         3.37210
C           9.68613         3.90258         3.91240
C          11.05047         4.42067         3.70830
C          11.38397         5.49706         4.36453
C          13.02351         5.58944         4.39086
C          14.03303         6.31627         4.92869
C          13.74314         7.45908         5.70401
C          12.36932         7.79679         5.85336
C          10.64263         7.18066         5.13780
C           9.76451         6.13024         3.90075
C           8.25307         5.14908         2.81827
C           7.20152         3.81327         1.73329
H           0.59643        -1.04558        -0.81502
H           3.17616         0.09897        -1.05786
H           3.18676        -0.98704         0.35824
H           2.94469         1.70811         1.36982
H           4.22041         3.14989         2.48535
H           7.16890         1.65100         2.46932
H           9.15380         4.46705         4.67385
H          11.70327         3.87591         3.14812
H          13.45972         4.70909         3.89837
H          15.10256         6.05548         4.76553
H          14.74129         7.96821         6.06693
H          12.65346         8.81461         6.60663
H          10.48824         8.05916         6.07784
H           7.98857         5.67536         3.98888
H           7.17566         2.51467         1.07235

