%chk=SdC1CC2dCCCdC2CCCdCN1.chk
%NProcShared=20
# opt freq b3lyp/6-31g(2df,p)

Title Card Required 

0  1
S           1.08353        -0.17524         0.19839
C           2.75844        -0.04336         0.01011
C           3.52896         1.28428         0.47882
C           3.94816         2.37496        -0.51699
C           3.11822         3.35223        -0.98083
C           2.34933         2.54460        -1.98460
C           3.59159         1.88682        -2.64113
C           4.56018         1.78490        -1.69293
C           6.00116         1.33981        -1.45939
C           6.11693        -0.11582        -0.94418
C           5.28255        -1.00774        -1.82127
C           4.05974        -1.39876        -1.52867
N           3.44504        -1.21458        -0.28831
H           4.43476         0.99100         1.01364
H           2.90751         1.80079         1.21478
H           3.50519         4.15005        -1.65551
H           1.64952         3.14472        -2.56603
H           1.70753         1.91628        -1.35559
H           3.73818         1.75736        -3.70252
H           6.41955         1.97390        -0.65864
H           6.67025         1.50239        -2.31136
H           5.77292        -0.18627         0.09224
H           7.15472        -0.45904        -0.88746
H           5.65895        -1.12699        -2.84478
H           3.42083        -1.85778        -2.29278
H           4.06561        -1.47948         0.46793

