%chk=SdC1CdCCdCNdC2SC2dCdCdNS1.chk
%NProcShared=20
# opt freq b3lyp/6-31g(2df,p)

Title Card Required 

0  1
S           2.55174        -0.18537         0.09745
C           4.57832        -0.95470         0.18619
C           3.40104        -1.72447         0.27497
C           4.69823        -1.27337         0.22294
C           5.12428        -3.08100         0.43143
C           6.46604        -3.74749         0.50831
N           8.31711        -2.90656         0.41131
C           9.53022        -3.15536         0.44001
S          10.96358        -2.55563         0.37084
C          10.53464        -4.17462         0.55757
C          10.54732        -5.41790         0.70097
C           9.24165        -5.09357         0.66356
N           7.87614        -4.36129         0.57910
S           6.81996        -1.92889         0.29855
H           2.80928        -2.55014         0.37021
H           4.88357         0.39410         0.03062
H           4.56359        -3.90401         0.52636
H           7.81648        -2.98917         0.42084

