%chk=SdCC1dCCdNCdCdNC2NCdCCdCCdCC2dCCdCCdNNN1.chk
%NProcShared=20
# opt freq b3lyp/6-31g(2df,p)

Title Card Required 

0  1
S           1.14942         0.78631        -0.06103
C           2.70030         1.54518        -0.02567
C           3.73515         3.12147        -0.06481
C           4.71055         2.13926        -0.12460
C           5.86332         2.86801        -0.45408
N           7.12849         2.62110        -0.40288
C           7.85459         3.82402        -0.68274
C           9.21155         4.08003        -0.70270
N          10.35120         4.45290        -0.45489
C          11.66108         5.12283        -1.50196
N          12.58837         4.11747        -1.52895
C          13.44940         4.52823        -2.44937
C          14.73444         4.52775        -2.21933
C          15.44616         5.22506        -3.23398
C          16.61686         5.60146        -2.75267
C          16.10772         7.02144        -2.55192
C          14.68048         7.29053        -1.86620
C          12.72040         6.71737        -1.44618
C          11.25950         7.22775        -1.24381
C           9.71343         8.08846        -0.94652
C           8.24833         7.99902        -0.98304
C           6.96839         8.85424        -0.39359
N           5.69091         8.25860        -0.18809
N           4.56788         6.82498        -0.39844
N           3.81331         5.03977        -0.09943
H           3.28804         0.43520         0.03322
H           4.85541         1.00006        -0.11392
H           5.50806         3.82706        -0.79894
H           7.15807         4.68493        -0.72275
H          11.08075         5.04032        -2.46001
H          12.79971         3.81695        -0.58403
H          13.05475         5.30687        -3.18154
H          15.06899         4.33268        -1.19414
H          14.89569         6.08543        -3.76587
H          17.17033         5.04589        -1.96555
H          16.92614         7.42503        -3.42313
H          15.75261         7.06138        -1.13818
H          10.41284         6.46817        -1.40167
H           9.98439         8.89242        -0.31002
H           7.42044         7.36521        -1.35520
H           7.38672        10.07970        -0.18516
H           3.84333         7.65023        -0.08344
H           2.83328         5.09767        -0.45399

