%chk=SdCC1dCCdCCdCCdCCdCCdCCdCS1.chk
%NProcShared=20
# opt freq b3lyp/6-31g(2df,p)

Title Card Required 

0  1
S           2.29156        -0.32294         0.58180
C           4.50489        -0.99142         1.46376
C           6.43450        -2.08143         2.90187
C           5.44731        -0.99998         1.47506
C           5.81148        -1.71145         2.41374
C           7.53660        -1.36744         1.95987
C           7.97765        -2.26260         3.14090
C           9.44959        -2.07124         2.88843
C          10.64682        -3.05422         4.18533
C          11.83300        -2.83706         3.89882
C          11.01051        -3.36246         4.59201
C          12.91659        -3.51314         4.79081
C          12.97837        -4.83258         6.53162
C          14.75691        -4.19194         5.68638
C          13.51135        -4.70030         6.35710
C          11.65377        -4.14571         5.62538
S           8.86740        -3.16643         4.33338
H           3.68498         0.04695         0.09379
H           5.40751        -0.16067         0.36771
H           4.78168        -2.17173         3.02101
H           7.47867        -0.80785         1.22157
H           7.41150        -3.24981         4.44338
H           9.74957        -1.53283         2.17808
H           9.66991        -3.95647         5.37572
H          11.70805        -2.32403         3.22195
H          10.58156        -4.48696         6.07563
H          13.94138        -3.23174         4.41954
H          13.23979        -5.56374         7.49627
H          15.90327        -4.16438         5.65002
H          14.85072        -5.47527         7.37955
H          13.50960        -4.22948         5.73591

