%chk=CC.CCC1CCCCCCCqCrCCC1.chk
%NProcShared=20
# opt freq b3lyp/6-31g(2df,p)

Title Card Required 

0  1
C          -0.20079        -0.85760         0.42630
C           1.20345        -1.34195         0.70408
C           1.90311         1.00443        -0.86275
C           3.30231         0.48982        -0.44146
C           3.59857         0.81999         1.05822
C           4.29882        -0.28612         1.92697
C           3.94700        -0.19941         3.45072
C           5.11135         0.39311         4.25144
C           4.73647         1.04538         5.58877
C           3.79037         2.23191         5.43205
C           4.34895         3.37420         4.57039
C           3.30596         4.18186         3.75616
C           1.86222         3.69596         3.94148
C           3.72603         4.31200         2.27036
C           3.15114         3.25074         1.34904
C           4.22166         2.19969         1.05173
H          -0.29894        -0.35987        -0.54641
H          -0.46007        -0.07847         1.16936
H          -0.89239        -1.67401         0.45187
H           1.73168        -0.49088         1.00147
H           1.68914        -1.76659        -0.19907
H           1.36475        -1.98056         1.56399
H           1.44005         0.27678        -1.53932
H           1.86241         1.97820        -1.35008
H           1.25653         1.15695         0.00871
H           4.02151         0.92049        -1.14707
H           3.41042        -0.58841        -0.59444
H           2.65663         0.93635         1.59924
H           5.38386        -0.26946         1.79171
H           3.95758        -1.27916         1.60784
H           3.74572        -1.20295         3.85774
H           3.00698         0.34167         3.60069
H           5.63305         1.11915         3.62818
H           5.83967        -0.40246         4.44499
H           5.64796         1.37550         6.09942
H           4.25473         0.30271         6.23701
H           3.51336         2.63269         6.41403
H           2.87220         1.81551         5.02722
H           5.14365         3.02651         3.90794
H           4.87232         4.07110         5.24071
H           3.34422         5.20683         4.14708
H           1.73621         2.64654         3.64855
H           1.16149         4.27786         3.33839
H           1.55963         3.76823         4.99003
H           4.82053         4.31891         2.18338
H           3.41151         5.28829         1.88882
H           2.81053         3.70607         0.41088
H           2.22985         2.81422         1.74067
H           5.07880         2.23456         1.71979
H           4.61275         2.44510         0.05631

