%chk=CC1CCCqCrqCrCqCrqCrCqCOrC1.chk
%NProcShared=20
# opt freq b3lyp/6-31g(2df,p)

Title Card Required 

0  1
C           0.77318         0.01435        -0.08413
C           2.29969         0.00219        -0.00605
C           2.84301        -1.35971        -0.46049
C           4.35969        -1.50366        -0.64398
C           4.97346        -0.69879        -1.82126
C           4.01097        -0.78142        -3.04450
C           6.23477        -1.48168        -2.28949
C           5.36843         0.80369        -1.39224
C           5.47777         1.68383        -2.67452
C           6.78396         0.86278        -0.74302
C           4.36133         1.51702        -0.38910
C           4.65830         1.32162         1.12695
O           3.71519         2.00835         1.94397
C           2.87401         1.25498        -0.69548
H           0.36221        -0.81470         0.50121
H           0.41811        -0.07367        -1.11463
H           0.37884         0.94333         0.34218
H           2.50717         0.06766         1.06474
H           2.33195        -1.67828        -1.37599
H           2.53537        -2.10449         0.28612
H           4.54122        -2.57431        -0.81477
H           4.89938        -1.30772         0.28558
H           3.77886        -1.82766        -3.27851
H           4.44366        -0.34614        -3.94918
H           3.05201        -0.28928        -2.88841
H           5.97289        -2.50008        -2.60012
H           6.97767        -1.58700        -1.49323
H           6.70821        -0.99636        -3.14965
H           6.18263         1.25142        -3.39439
H           5.83819         2.69286        -2.44520
H           4.51279         1.80085        -3.17739
H           7.57593         0.53973        -1.42553
H           6.84432         0.23314         0.15099
H           7.04049         1.88978        -0.45370
H           4.49422         2.59967        -0.54741
H           5.64617         1.68889         1.40907
H           4.61826         0.27421         1.42692
H           3.74517         2.95216         1.70064
H           2.68232         1.26767        -1.77114
H           2.31120         2.12992        -0.33888

