%chk=CC1CC1CC1OCCCdCCdCC1O.chk
%NProcShared=20
# opt freq b3lyp/6-31g(2df,p)

Title Card Required 

0  1
C           1.06731         0.05375         0.02080
C           2.55845         0.09230         0.04671
C           3.34248        -0.60221        -1.03738
C           3.36310         0.98957        -0.90674
C           4.59316         1.86524        -0.38431
C           4.64921         3.69070        -0.35150
O           5.97178         3.95361        -0.61793
C           5.83431         5.24420        -1.11659
C           6.98385         5.90177        -0.51476
C           6.79329         7.24993        -1.12163
C           7.21750         8.15343        -0.25836
C           5.84850         8.39274         0.35322
C           4.88323         7.27310         0.77113
C           4.22941         5.24272         0.69655
O           2.78346         4.95147        -0.03308
H           0.69247        -0.54772         0.85965
H           0.66951        -0.38128        -0.90106
H           0.67707         1.06656         0.14431
H           2.87128         0.03221         1.08208
H           2.74757        -1.13184        -1.80085
H           4.17392        -1.27753        -0.82162
H           2.92331         1.44675        -1.78501
H           5.34318         1.56486        -1.17135
H           4.99089         1.41735         0.52328
H           4.12742         3.75399        -1.36768
H           5.06940         5.91659        -0.76375
H           5.22859         5.32799        -2.02082
H           7.85334         5.42119        -0.88462
H           6.95282         5.77415         0.63048
H           5.72810         7.51299        -1.44403
H           8.15702         7.96341         0.29632
H           5.78136         9.51871         0.00158
H           5.71387         7.52460         1.62732
H           3.92365         4.96449         1.67816
H           2.69654         3.93896        -0.22167

