%chk=CC1qCrCC1C1dCqCOrCC1.chk
%NProcShared=20
# opt freq b3lyp/6-31g(2df,p)

Title Card Required 

0  1
C           1.06438        -1.24133        -0.03896
C           0.19650        -0.01429        -0.01997
C           0.96635         1.28468        -0.01018
C          -1.14134        -0.06307        -0.72216
C          -1.10028        -0.07487         0.78863
C          -1.53904         1.12300         1.64893
C          -1.65704         1.33764         2.98079
C          -1.46820         0.51101         4.23281
O          -1.66468         1.30793         5.38246
C          -1.95503         2.81676         2.78938
C          -1.88647         2.55033         1.28456
H           1.95866        -1.07074        -0.64783
H           0.54293        -2.10592        -0.46121
H           1.38646        -1.49110         0.97638
H           1.88050         1.21441        -0.60552
H           1.25038         1.54754         1.01501
H           0.38361         2.10827        -0.43302
H          -1.42145        -0.97754        -1.23608
H          -1.50665         0.82544        -1.22530
H          -1.36027        -1.02993         1.24301
H          -0.47654         0.04492         4.24639
H          -2.16121        -0.33713         4.23474
H          -0.98658         2.00321         5.36053
H          -1.17811         3.50163         3.15010
H          -2.92669         3.17166         3.14382
H          -1.10414         3.12352         0.77761
H          -2.82106         2.68777         0.73259

