%chk=CCC1CCqOrCCC1CCO.chk
%NProcShared=20
# opt freq b3lyp/6-31g(2df,p)

Title Card Required 

0  1
C           0.82656        -0.13895        -0.18280
C           2.33639        -0.07393        -0.14302
C           3.04699         0.02812        -1.50591
C           3.92179        -1.20640        -1.80523
C           4.52323        -1.12246        -3.21354
O           5.36913        -2.24571        -3.44408
C           5.31469         0.16753        -3.42832
C           4.48469         1.39944        -3.06977
C           3.90792         1.32117        -1.63406
C           5.07130         1.46427        -0.61080
C           4.70093         1.44253         0.86709
O           5.85762         1.63758         1.66623
H           0.45592        -0.16427         0.84957
H           0.46551        -1.02103        -0.71005
H           0.42685         0.76690        -0.64946
H           2.72777        -0.91484         0.44136
H           2.49009         0.84189         0.42313
H           2.27089         0.06600        -2.28397
H           3.33445        -2.12832        -1.71658
H           4.72673        -1.30670        -1.06530
H           3.71332        -1.17376        -3.94922
H           6.16735        -2.14094        -2.90699
H           5.65468         0.22741        -4.46929
H           6.23624         0.14464        -2.83424
H           3.66157         1.49431        -3.79053
H           5.09840         2.30124        -3.18403
H           3.23831         2.18316        -1.50766
H           5.59548         2.40800        -0.81144
H           5.82425         0.68596        -0.76884
H           4.31182         0.46899         1.16931
H           3.97279         2.22416         1.10361
H           6.30470         0.77876         1.70523

