%chk=CCC1CCCqCrCNqCCrCC1.chk
%NProcShared=20
# opt freq b3lyp/6-31g(2df,p)

Title Card Required 

0  1
C           0.78243        -0.25213         0.14172
C           2.27199        -0.24747        -0.12798
C           2.70704         0.55359        -1.37317
C           3.88080        -0.03750        -2.16108
C           4.74384         1.04228        -2.84168
C           5.18674         2.27341        -1.99360
C           5.50591         2.00356        -0.50486
C           4.30436         3.53347        -2.27193
N           2.88506         3.55780        -1.86911
C           2.71185         3.61880        -0.41114
C           1.32024         3.59695         0.19578
C           2.04709         2.67651        -2.70085
C           1.63440         1.26980        -2.20669
H           0.54229        -0.90078         0.98597
H           0.24152        -0.60844        -0.73894
H           0.42552         0.75044         0.39963
H           2.66804        -1.26347        -0.14316
H           2.74677         0.23297         0.74858
H           3.17664         1.34044        -0.89081
H           3.52219        -0.75193        -2.90650
H           4.53618        -0.59681        -1.48062
H           4.23549         1.38353        -3.75124
H           5.64964         0.55034        -3.22158
H           6.16562         2.55423        -2.40888
H           4.69467         1.64349         0.12566
H           5.86084         2.91873        -0.01947
H           6.26518         1.22562        -0.40708
H           4.34857         3.72871        -3.35615
H           4.80434         4.41419        -1.84573
H           3.26508         4.47790        -0.01414
H           3.19438         2.79786         0.09510
H           0.88353         4.59222         0.25077
H           1.40072         3.19367         1.21603
H           0.62780         2.94166        -0.32529
H           2.48978         2.56417        -3.70005
H           1.12006         3.22538        -2.91978
H           1.32779         0.64589        -3.05021
H           0.72286         1.41997        -1.63069

