%chk=CCC1OC2COCqCrC2C1CCN.chk
%NProcShared=20
# opt freq b3lyp/6-31g(2df,p)

Title Card Required 

0  1
C           1.00325        -0.07268        -0.11974
C           2.51831        -0.15951        -0.18975
C           3.09863        -0.67669         1.13187
O           4.31003        -1.40827         0.91296
C           5.44109        -0.57134         1.19769
C           6.13071        -0.22435        -0.10420
O           5.50421         0.97778        -0.57175
C           5.07656         1.72391         0.57683
C           6.08999         2.82529         0.83442
C           4.92655         0.74327         1.75142
C           3.46545         0.44240         2.10898
C           3.31646        -0.02493         3.57231
C           1.85030        -0.32290         3.91596
N           1.72041        -0.72680         5.30833
H           0.60911         0.36087        -1.04309
H           0.68288         0.55713         0.71691
H           0.56750        -1.06759         0.00886
H           2.87266         0.84336        -0.42736
H           2.83086        -0.79439        -1.02459
H           2.39735        -1.40369         1.54370
H           6.09759        -1.11840         1.88159
H           6.01756        -1.00375        -0.86471
H           7.19367        -0.01400         0.04496
H           4.13638         2.22752         0.33508
H           7.08693         2.41818         1.02420
H           5.78128         3.44206         1.68288
H           6.16838         3.46571        -0.05160
H           5.49999         1.09269         2.61722
H           2.83188         1.32858         1.98604
H           3.68592         0.76718         4.23739
H           3.93682        -0.91036         3.75878
H           1.45172        -1.13320         3.30035
H           1.23367         0.56140         3.72792
H           2.25971        -1.57364         5.46371
H           0.74460        -0.98515         5.48222

