%chk=CCC1dCCCCCqCCqCrCOrCC1.chk
%NProcShared=20
# opt freq b3lyp/6-31g(2df,p)

Title Card Required 

0  1
C           0.91796         0.04355         0.08730
C           2.44510        -0.00985         0.07559
C           2.92519        -1.12322        -0.82496
C           2.47739        -2.37449        -0.53789
C           2.59927        -3.67305        -1.25638
C           3.27146        -3.65594        -2.61741
C           4.77711        -3.57782        -2.47505
C           5.47145        -2.62958        -1.49742
C           6.98089        -2.97750        -1.37580
C           7.31604        -4.42261        -0.88430
C           6.95145        -5.57964        -1.83807
C           8.83223        -4.53199        -0.65556
O           9.17916        -5.81722        -0.14789
C           5.26617        -1.16357        -1.90543
C           3.79810        -0.71633        -1.99377
H           0.56476         0.85174         0.72929
H           0.47613        -0.88549         0.46610
H           0.52993         0.19813        -0.92592
H           2.83322        -0.16744         1.08886
H           2.83014         0.95965        -0.25950
H           1.91013        -2.49785         0.38268
H           1.58874        -4.07875        -1.38039
H           3.12147        -4.37488        -0.58905
H           2.85778        -2.91420        -3.29951
H           3.05945        -4.62239        -3.09757
H           5.27212        -3.57610        -3.45159
H           4.91814        -4.53591        -2.02634
H           5.07217        -2.76926        -0.48590
H           7.41818        -2.26843        -0.65428
H           7.48597        -2.78087        -2.32932
H           6.80097        -4.58888         0.07193
H           7.24500        -5.33584        -2.86345
H           5.90790        -5.88619        -1.82394
H           7.42788        -6.51614        -1.54521
H           9.19475        -3.78606         0.05453
H           9.36080        -4.39501        -1.60572
H           8.59114        -6.00431         0.60368
H           5.73917        -0.99251        -2.88224
H           5.79108        -0.51121        -1.19554
H           3.35554        -1.04751        -2.93611
H           3.79723         0.37625        -2.10247

