%chk=CCC1qCSrCCOCCqCrC1dO.chk
%NProcShared=20
# opt freq b3lyp/6-31g(2df,p)

Title Card Required 

0  1
C           0.91727        -0.05295         0.04654
C           2.45212         0.05817        -0.00499
C           3.04911         1.33722        -0.73545
C           4.63119         1.01031        -0.95828
S           5.93576         1.63511        -2.25903
C           2.35331         1.47632        -2.09603
C           2.63402         2.78268        -2.80655
O           1.91113         3.83529        -2.18535
C           2.58951         4.63564        -1.21299
C           3.22692         3.93282        -0.00930
C           4.69965         3.78640        -0.20944
C           2.65053         2.56011         0.20456
O           1.77631         2.46961         1.09818
H           0.61426        -0.96880         0.56105
H           0.47655        -0.09566        -0.95176
H           0.43984         0.77350         0.57705
H           2.81779        -0.84523        -0.50643
H           2.83470         0.01478         1.02536
H           4.68370        -0.02949        -1.28877
H           5.14097         1.03987         0.01240
H           5.43314         2.78746        -2.76295
H           1.26473         1.43106        -1.98817
H           2.64750         0.61946        -2.71496
H           2.30793         2.68042        -3.84702
H           3.67666         3.02962        -2.86771
H           1.83647         5.33407        -0.83505
H           3.33913         5.25119        -1.72609
H           3.11223         4.53409         0.90420
H           4.70126         3.29138        -1.14623
H           5.18708         3.15702         0.54105
H           5.27721         4.68173        -0.41671

