%chk=CCCCqCrqCrCCqCrqCCrCO.chk
%NProcShared=20
# opt freq b3lyp/6-31g(2df,p)

Title Card Required 

0  1
C           0.69390        -0.01397         0.02812
C           2.18582        -0.02649        -0.00259
C           2.75459        -1.44347        -0.26626
C           4.29526        -1.40484        -0.11616
C           4.74090        -0.36672        -1.19250
C           4.43150        -1.08859         1.41258
C           5.00595        -2.76387        -0.42430
C           6.60414        -2.79417        -0.47613
C           7.20460        -2.04851        -1.68780
C           7.26975        -2.23935         0.82006
C           7.26922        -0.70708         0.98964
C           7.00975        -4.29195        -0.65910
O           8.42924        -4.47106        -0.65709
H           0.36021         1.01212         0.20487
H           0.33841        -0.65638         0.83378
H           0.31411        -0.35825        -0.93435
H           2.54402         0.39588         0.94251
H           2.48053         0.68185        -0.77968
H           2.46000        -1.79885        -1.25861
H           2.32892        -2.15257         0.45630
H           4.27930         0.61344        -1.12520
H           4.53150        -0.76057        -2.20040
H           5.77184        -0.06630        -1.16637
H           4.39979        -0.01501         1.61448
H           5.31012        -1.47440         1.90851
H           3.65874        -1.59045         2.00865
H           4.62512        -3.15564        -1.38044
H           4.66471        -3.49661         0.32515
H           7.18270        -0.97090        -1.61151
H           6.71703        -2.34074        -2.62089
H           8.27987        -2.20836        -1.77591
H           8.31975        -2.54035         0.87431
H           6.80250        -2.74112         1.68022
H           8.01344        -0.20580         0.37353
H           7.39011        -0.42864         2.04020
H           6.35300        -0.22384         0.68284
H           6.63182        -4.68124        -1.61281
H           6.60824        -4.92005         0.13865
H           8.80944        -3.92782        -1.34998

