%chk=CCCCCCCCCCqOrCCCqCrC.chk
%NProcShared=20
# opt freq b3lyp/6-31g(2df,p)

Title Card Required 

0  1
C           1.01348         0.03036         0.06106
C           2.53019         0.03937         0.06293
C           3.05650         1.43783         0.35496
C           4.57713         1.44915         0.35755
C           5.08917         2.84986         0.65072
C           6.60638         2.85848         0.65386
C           7.11795         4.25676         0.94736
C           8.63429         4.25012         0.94086
C           9.16400         5.64458         1.22023
C          10.68703         5.64712         1.20360
O          11.16296         5.22804        -0.07295
C          11.19098         7.04824         1.51093
C          12.71483         7.09769         1.54500
C          13.23789         8.50344         1.86352
C          12.75191         8.99835         3.22670
C          14.76428         8.49683         1.82448
H           0.64099        -0.97574        -0.14900
H           0.62261         0.70954        -0.70336
H           0.62261         0.34693         1.03337
H           2.90073        -0.30281        -0.91040
H           2.90070        -0.66370         0.81803
H           2.68456         1.78119         1.32821
H           2.68474         2.14198        -0.39965
H           4.95641         1.11201        -0.61497
H           4.95617         0.75053         1.11355
H           4.71441         3.19077         1.62363
H           4.71575         3.55174        -0.10513
H           6.98452         2.52072        -0.31914
H           6.98448         2.15822         1.40892
H           6.74729         4.59810         1.92162
H           6.74389         4.95932         0.19235
H           8.99359         3.89685        -0.03288
H           9.01003         3.55237         1.69917
H           8.79723         5.99326         2.19439
H           8.77870         6.33499         0.45910
H          11.06713         4.94152         1.95064
H          10.82900         5.85152        -0.73417
H          10.77280         7.35228         2.47584
H          10.82859         7.75432         0.75332
H          13.11102         6.77937         0.57201
H          13.08721         6.37936         2.28642
H          12.87583         9.19550         1.09233
H          13.05600         8.31133         4.02364
H          11.66226         9.09246         3.25948
H          13.15949         9.98854         3.44880
H          15.17333         7.81319         2.57637
H          15.16053         9.49765         2.02044
H          15.12761         8.17591         0.84242

