%chk=CCCCCqCCCrN[PH]qdOrCOCC.chk
%NProcShared=20
# opt freq b3lyp/6-31g(2df,p)

Title Card Required 

0  1
C           0.93049         0.22426         0.09331
C           2.45614         0.31893         0.18902
C           3.01511        -1.08771         0.13130
C           4.52211        -1.26192         0.00828
C           4.95286        -2.74862        -0.12494
C           4.39536        -3.48030        -1.39803
C           2.87864        -3.69476        -1.51710
C           2.45897        -4.43282        -2.77182
N           6.45608        -2.79050        -0.10033
P           7.04941        -4.46773        -0.15757
O           7.25799        -4.37590        -1.68092
C           7.65940        -6.19207        -0.21642
O           7.82605        -6.66997         1.12182
C           8.31082        -8.01695         1.08308
C           8.49762        -8.52610         2.49555
H           0.47620         1.21613         0.09195
H           0.51938        -0.35496         0.92644
H           0.62444        -0.28316        -0.83370
H           2.76447         0.82967         1.10559
H           2.82551         0.88672        -0.67038
H           2.59914        -1.39015        -0.81403
H           2.60430        -1.72589         0.91746
H           4.99216        -0.82072         0.89840
H           4.88424        -0.70295        -0.86026
H           4.60363        -3.29362         0.76127
H           4.80456        -4.49804        -1.42162
H           4.76658        -2.96915        -2.29240
H           2.33935        -2.77201        -1.67456
H           2.48062        -4.16850        -0.61618
H           2.80739        -3.88857        -3.65553
H           1.36349        -4.45394        -2.81682
H           2.83715        -5.45491        -2.79522
H           6.79213        -2.32557         0.73697
H           8.14352        -4.08411         0.64625
H           8.62118        -6.22330        -0.74115
H           6.92093        -6.80992        -0.73923
H           9.26784        -8.05089         0.54909
H           7.58781        -8.64981         0.55562
H           9.21411        -7.90248         3.03905
H           8.86246        -9.55755         2.48683
H           7.55259        -8.48992         3.04606

