%chk=CCCCCC1dCCCCCCCqdOrO1.chk
%NProcShared=20
# opt freq b3lyp/6-31g(2df,p)

Title Card Required 

0  1
C           0.89434        -0.07772         0.02324
C           2.40685        -0.07379         0.00894
C           2.91602         0.71452        -1.18841
C           4.42909         0.69928        -1.18903
C           4.98055         1.44926        -2.38853
C           6.48955         1.46897        -2.42411
C           7.28670         1.22251        -1.37020
C           8.77848         1.20221        -1.37434
C           9.35757         2.56875        -1.03170
C           9.26567         3.53417        -2.22091
C           8.05359         4.46547        -2.13129
C           6.78542         4.13663        -2.90763
C           6.90252         3.13650        -4.03839
O           6.93302         3.48938        -5.22064
O           7.02678         1.81925        -3.67906
H           0.52599        -0.65036         0.87751
H           0.50455        -0.52939        -0.89422
H           0.50859         0.94401         0.09534
H           2.78182        -1.10324        -0.03633
H           2.78611         0.36725         0.93909
H           2.55837         1.75061        -1.13667
H           2.53959         0.28186        -2.12197
H           4.80078        -0.33244        -1.20285
H           4.76884         1.16745        -0.25694
H           4.58299         2.46991        -2.37139
H           4.60922         1.00034        -3.31740
H           6.85488         1.04050        -0.38979
H           9.15826         0.85001        -2.33846
H           9.10689         0.47008        -0.62646
H          10.41257         2.44038        -0.76202
H           8.87156         2.98769        -0.13978
H           9.33037         2.99819        -3.17467
H          10.16066         4.16732        -2.19267
H           8.37452         5.46657        -2.43484
H           7.75416         4.56249        -1.08024
H           6.35213         5.05840        -3.31584
H           6.02392         3.82909        -2.19211

