%chk=CCCCCqOrCCCCCCCqCrC.chk
%NProcShared=20
# opt freq b3lyp/6-31g(2df,p)

Title Card Required 

0  1
C           0.94649        -0.06165        -0.04387
C           2.46335        -0.06428        -0.05146
C           2.98399        -0.12999        -1.47982
C           4.50723        -0.12596        -1.50259
C           5.02309        -0.18648        -2.93511
O           4.54372         0.94097        -3.66845
C           6.54531        -0.19399        -2.94696
C           7.06152        -0.26418        -4.37505
C           8.57613        -0.25958        -4.38389
C           9.07788        -0.31340        -5.81712
C          10.59371        -0.31881        -5.81415
C          11.14251        -0.40761        -7.23139
C          12.67642        -0.43181        -7.24870
C          13.23740        -1.62993        -6.47951
C          13.17151        -0.46438        -8.69259
H           0.57228        -0.01218         0.98182
H           0.55539        -0.97089        -0.51162
H           0.55775         0.80083        -0.59511
H           2.83463        -0.92131         0.52195
H           2.83466         0.84317         0.43891
H           2.59855         0.72580        -2.04711
H           2.61336        -1.03705        -1.97296
H           4.89311        -0.98015        -0.93253
H           4.87070         0.78754        -1.01538
H           4.64506        -1.08743        -3.43079
H           4.88670         1.74072        -3.24345
H           6.92210        -1.04825        -2.37061
H           6.92952         0.71821        -2.47308
H           6.69453         0.59015        -4.95601
H           6.68743        -1.17328        -4.86149
H           8.95549        -1.11957        -3.81760
H           8.95253         0.64456        -3.88933
H           8.70140         0.54598        -6.38423
H           8.70205        -1.22019        -6.30719
H          10.92309        -1.17573        -5.21828
H          10.97241         0.58602        -5.32345
H          10.78181         0.45365        -7.80927
H          10.74650        -1.30485        -7.72404
H          13.04673         0.48782        -6.77764
H          12.85892        -2.57162        -6.89145
H          12.97010        -1.59372        -5.41910
H          14.32989        -1.64586        -6.52668
H          12.82309        -1.36639        -9.20732
H          14.26526        -0.45342        -8.72594
H          12.80793         0.40555        -9.24943

