%chk=CCCCqCrCCCqCOCrCqCrCC.chk
%NProcShared=20
# opt freq b3lyp/6-31g(2df,p)

Title Card Required 

0  1
C           0.82396         0.00898         0.02624
C           2.33784         0.05197         0.01811
C           2.92557        -1.07057         0.86253
C           4.46293        -1.03287         0.88849
C           4.99669         0.26918         1.49171
C           4.93981        -2.26200         1.67049
C           6.45693        -2.38807         1.70726
C           6.99749        -3.57406         2.53825
C           6.49758        -4.92112         1.96688
O           5.08372        -5.03731         2.10617
C           4.57269        -6.15574         1.39763
C           8.56276        -3.50978         2.58559
C           9.07096        -2.16920         3.15490
C           9.14111        -4.68054         3.40864
C          10.65925        -4.73331         3.41507
H           0.42959         0.83984        -0.56534
H           0.44229         0.10359         1.04745
H           0.45471        -0.92883        -0.39856
H           2.64564         1.02568         0.40915
H           2.71107        -0.02585        -1.00834
H           2.59296        -2.03543         0.45214
H           2.53534        -1.01962         1.88606
H           4.83249        -1.11753        -0.14006
H           4.66284         0.38554         2.52644
H           4.67185         1.14133         0.91940
H           6.08923         0.30647         1.47494
H           4.50650        -3.12686         1.16086
H           4.54749        -2.24265         2.69282
H           6.83188        -1.46917         2.15974
H           6.85166        -2.43149         0.68701
H           6.60788        -3.46570         3.55773
H           6.91392        -5.76859         2.51283
H           6.78814        -5.00005         0.91369
H           3.48099        -6.09622         1.40651
H           4.88485        -7.07838         1.89204
H           4.91006        -6.14806         0.35635
H           8.93557        -3.59396         1.55690
H           8.71084        -2.01669         4.17697
H           8.76555        -1.31160         2.54971
H          10.16301        -2.12060         3.16409
H           8.81607        -5.63720         2.99123
H           8.76308        -4.63351         4.43585
H          11.04307        -4.79261         2.39228
H          10.99456        -5.62064         3.95971
H          11.09810        -3.86314         3.90777

