%chk=CCCCCCCCCqCrCCOCqCrCC.chk
%NProcShared=20
# opt freq b3lyp/6-31g(2df,p)

Title Card Required 

0  1
C           0.99521         0.00478         0.11012
C           2.51176         0.00966         0.10483
C           3.04208         0.98581        -0.93675
C           4.56340         0.98189        -0.93842
C           5.08857         1.94934        -1.98405
C           6.60979         1.93324        -1.98815
C           7.10982         2.91830        -3.02591
C           8.63174         2.97364        -3.03693
C           9.14512         3.98466        -4.06873
C           8.61298         5.39919        -3.76674
C          10.68717         3.93538        -4.09842
C          11.21010         4.88867        -5.15674
O          12.62845         4.97387        -5.16297
C          13.08254         5.93252        -6.13829
C          12.57960         7.34901        -5.82191
C          14.61384         5.87948        -6.14480
C          15.22447         6.80097        -7.18935
H           0.62285        -0.69918         0.85955
H           0.60464        -0.29386        -0.86761
H           0.60481         0.99941         0.34713
H           2.88113        -0.99974        -0.10993
H           2.88181         0.28768         1.09809
H           2.67550         1.99739        -0.72303
H           2.67105         0.71081        -1.93105
H           4.93586        -0.02696        -1.15226
H           4.94020         1.26697         0.05025
H           4.72667         2.96317        -1.76777
H           4.71014         1.67788        -2.97579
H           6.98135         0.92701        -2.21356
H           6.98812         2.21319        -0.99946
H           6.68952         3.89737        -2.77430
H           6.73843         2.64910        -4.01967
H           9.02427         1.97583        -3.27610
H           9.00409         3.23264        -2.04086
H           8.77433         3.68883        -5.05664
H           8.95934         5.74729        -2.78995
H           7.52086         5.43990        -3.78137
H           8.91486         6.12864        -4.52291
H          11.03894         2.91796        -4.31479
H          11.10275         4.19755        -3.11959
H          10.83058         5.87237        -4.90162
H          10.84515         4.59951        -6.14671
H          12.71311         5.61905        -7.12254
H          12.87585         7.64381        -4.80995
H          11.48938         7.42324        -5.87205
H          12.94520         8.08733        -6.53716
H          14.93907         4.84872        -6.33428
H          14.99887         6.13336        -5.14969
H          14.84640         6.55786        -8.18722
H          16.31304         6.70434        -7.19642
H          14.99729         7.85104        -6.98394

