%chk=CCCCCC1CCCCCqCCrCC1.chk
%NProcShared=20
# opt freq b3lyp/6-31g(2df,p)

Title Card Required 

0  1
C           1.00360        -0.05667        -0.01071
C           2.51814        -0.05081        -0.01368
C           3.04639        -0.00999        -1.43945
C           4.56619        -0.00624        -1.42191
C           5.09625         0.02938        -2.84488
C           6.63679         0.00251        -2.88536
C           7.14757        -1.40055        -2.50006
C           8.66156        -1.57552        -2.46466
C           9.42109        -1.53773        -3.79106
C           8.72646        -2.18280        -4.99634
C           7.98075        -1.23922        -5.97451
C           8.96134        -0.27096        -6.67011
C           8.28841         0.68881        -7.64123
C           6.76100        -0.52045        -5.38027
C           7.07880         0.48192        -4.27150
H           0.63031        -0.08121         1.01654
H           0.61927        -0.93354        -0.54050
H           0.61320         0.84049        -0.50073
H           2.89137        -0.94737         0.49501
H           2.88703         0.81736         0.54337
H           2.67709         0.88345        -1.95711
H           2.68548        -0.88145        -1.99865
H           4.91503        -0.90202        -0.89982
H           4.93866         0.86284        -0.86994
H           4.72386         0.93979        -3.33298
H           4.68281        -0.81505        -3.40689
H           7.01657         0.72434        -2.15335
H           6.69095        -2.16916        -3.13005
H           6.79791        -1.63121        -1.48674
H           8.85988        -2.55080        -1.99847
H           9.09508        -0.83113        -1.78673
H          10.36549        -2.07258        -3.62188
H           9.73561        -0.51314        -4.00273
H           8.05992        -2.99114        -4.66917
H           9.50706        -2.68581        -5.58316
H           7.57696        -1.89220        -6.76124
H           9.70512        -0.86230        -7.21768
H           9.51658         0.32306        -5.94057
H           7.71493         0.14453        -8.39647
H           9.04179         1.29979        -8.14556
H           7.61564         1.38020        -7.12322
H           6.02957        -1.27174        -5.06094
H           6.23415         0.01705        -6.17831
H           6.56381         1.42664        -4.49530
H           8.13292         0.76894        -4.24837

