%chk=CCCC1dCCqOCrdCqCrCdCCqCrC1.chk
%NProcShared=20
# opt freq b3lyp/6-31g(2df,p)

Title Card Required 

0  1
C           0.97662        -0.05377        -0.02247
C           2.54904        -0.06631        -0.01545
C           3.30954        -0.07196         1.44145
C           5.19476        -0.14658         1.87396
C           5.33599         0.51466         2.95053
C           6.73090         1.08291         2.84009
O           7.86009         0.83828         1.41430
C           7.31932         0.16222        -0.07406
C           7.23058         0.64440         3.98036
C           6.52647         0.28955         5.27431
C           8.59574         0.72853         3.60196
C           8.97140         0.25735         4.74558
C           9.00328        -0.71680         3.57272
C          10.39866        -0.08870         5.01076
C           7.03386        -0.86166         2.30182
H           0.57863        -0.11343        -1.05396
H           0.56745         0.86337         0.41758
H           0.56459        -0.90871         0.52359
H           2.84080         0.80293        -0.61160
H           2.83404        -0.97970        -0.52566
H           2.73028        -0.84158         1.98213
H           2.76775         0.87877         1.85168
H           4.50664         0.25583         3.59372
H           7.85533         0.01285        -1.00397
H           6.63449         1.01568        -0.18750
H           6.93202        -0.99759        -0.09374
H           5.46929         0.23834         5.08880
H           6.78931         1.22141         5.75801
H           6.82274        -0.64441         5.78737
H           9.33879         0.48846         2.37217
H           8.67494         0.25379         5.83658
H          10.27854        -0.18915         3.22253
H          10.25479         0.22664         6.32320
H          11.26625         0.97128         5.35971
H          11.36788        -0.63757         5.55588
H           6.19782        -1.04925         1.18238
H           6.41673         0.08405         1.36281

