%chk=CCCCqCCCrCqCrOCdO.chk
%NProcShared=20
# opt freq b3lyp/6-31g(2df,p)

Title Card Required 

0  1
C           0.75922         0.10151         0.00614
C           2.26197         0.07870         0.01077
C           2.92089         1.11538        -0.88868
C           4.47669         1.09676        -0.92841
C           5.05996        -0.22542        -1.50998
C           4.73362        -1.48048        -0.70553
C           5.23180        -2.77390        -1.28476
C           5.01217         2.31871        -1.75587
C           4.51308         3.64594        -1.17828
O           6.46097         2.29506        -1.71308
C           7.16252         3.19431        -2.44519
O           8.37558         3.24986        -2.47363
H           0.40794        -0.75830         0.58946
H           0.40785        -0.04314        -1.02228
H           0.36168         1.02367         0.41823
H           2.37049        -0.90312        -0.39694
H           2.69344         0.09337         1.01745
H           2.56915         2.07879        -0.51247
H           2.54542         1.01661        -1.91432
H           4.86142         1.20096         0.09643
H           6.15180        -0.15184        -1.56684
H           4.69443        -0.34472        -2.53699
H           3.69355        -1.70956        -0.78962
H           4.97592        -1.35620         0.35575
H           4.82321        -2.88842        -2.29567
H           4.82314        -3.59548        -0.68217
H           6.31531        -2.82222        -1.30070
H           4.69198         2.21417        -2.80153
H           4.85779         3.76077        -0.14553
H           3.42527         3.72784        -1.20344
H           4.89070         4.50241        -1.74176
H           6.51968         3.88898        -3.01021

