%chk=CCCC1CCCtCCqNrCCCC1.chk
%NProcShared=20
# opt freq b3lyp/6-31g(2df,p)

Title Card Required 

0  1
C           0.95514         0.03541        -0.00093
C           2.51962         0.06575         0.08242
C           2.96598         0.21773         1.67029
C           4.52983         0.61137         2.52521
C           4.86773        -0.31018         3.45314
C           6.48007         0.18010         2.84333
C           6.98674         0.25477         4.27446
C           7.42135         0.31881         5.50207
C           7.92801         0.39348         6.93320
N           8.78378         1.58636         7.08140
C           6.69949         0.31889         7.32891
C           6.36555         0.86393         8.46465
C           5.30285         1.05993         6.67807
C           4.99552         1.30189         4.44289
H           0.57278        -0.02211        -1.03322
H           0.53735         0.94375         0.44555
H           0.54654        -0.82695         0.53949
H           2.83609         0.90581        -0.54655
H           2.84320        -0.86276        -0.42561
H           2.58705        -0.73365         2.06508
H           2.42305         1.09597         1.94477
H           4.97694        -0.24565         1.59342
H           4.49199        -1.29673         3.45037
H           3.83688         0.36357         3.57237
H           6.89168         1.01112         2.24873
H           6.86653        -0.74288         2.38311
H           8.55000        -0.48429         7.14204
H           8.24127         2.42447         6.86208
H           9.54969         1.55810         6.41990
H           6.34742        -0.68426         7.61426
H           6.76358         1.55280         7.45394
H           7.36156         1.51061         9.00539
H           7.16569        -0.08463         9.06454
H           4.91981         1.76425         7.50945
H           4.69493         0.25860         7.35494
H           5.86295         1.78726         3.68727
H           4.80058         2.23203         3.71591

