%chk=CCCCqCqCrOCCrCqCOrOC.chk
%NProcShared=20
# opt freq b3lyp/6-31g(2df,p)

Title Card Required 

0  1
C           0.79910        -0.01751        -0.00809
C           2.31622        -0.05006        -0.08058
C           2.92141         1.25520         0.42948
C           4.47550         1.34740         0.47977
C           5.11059         1.14754        -0.94998
C           6.63800         1.19598        -0.97416
O           4.73600        -0.14821        -1.45867
C           5.00370        -0.33533        -2.84758
C           4.41954        -1.65578        -3.30327
C           4.91828         2.70329         1.15755
C           4.34229         2.93795         2.57630
O           2.93869         3.13119         2.65026
O           6.34976         2.71055         1.28791
C           6.92362         3.98208         1.56510
H           0.39222        -0.96171        -0.38146
H           0.40765         0.79223        -0.63282
H           0.44842         0.13284         1.01671
H           2.55977        -0.22218        -1.12737
H           2.70071        -0.88781         0.51222
H           2.52869         1.34859         1.44316
H           2.52728         2.10000        -0.14996
H           4.83325         0.52065         1.10887
H           4.69802         1.91912        -1.61347
H           7.04508         0.42294        -0.31336
H           7.04232         2.17159        -0.71782
H           7.03839         0.99818        -1.97028
H           6.08098        -0.38760        -3.01510
H           4.58268         0.48985        -3.43158
H           4.76599        -2.47198        -2.66124
H           4.72324        -1.86390        -4.33367
H           3.32716        -1.64044        -3.25292
H           4.60687         3.51781         0.48898
H           4.77502         3.83944         3.01524
H           4.63401         2.11099         3.23185
H           2.66963         3.70144         1.91795
H           8.00594         3.90360         1.43249
H           6.74484         4.26712         2.60397
H           6.54009         4.74834         0.88518

