%chk=CCCCCqCCrPqOrOC1qOCrCCC1.chk
%NProcShared=20
# opt freq b3lyp/6-31g(2df,p)

Title Card Required 

0  1
C           0.93736         0.21220         0.00833
C           2.45936         0.29569         0.02035
C           2.96129        -0.69675         1.05337
C           4.46237        -0.88070         1.09628
C           4.93024        -1.95752         2.12619
C           4.46787        -3.39939         1.83553
C           2.97582        -3.67285         1.95105
P           6.79481        -1.92247         2.00817
O           7.01836        -0.45893         2.67650
O           7.36513        -2.82041         3.24303
C           8.83942        -2.91127         3.27979
O           9.43390        -1.82633         2.49811
C          10.79782        -1.61957         2.31680
C           9.42573        -3.10723         4.72596
C          10.43565        -4.10927         4.12979
C           9.40645        -4.35607         3.00681
H           0.51248         0.88395        -0.73865
H           0.52963         0.46809         0.99222
H           0.60893        -0.80856        -0.22667
H           2.79782         1.31127         0.24356
H           2.84160         0.01954        -0.97000
H           2.51794        -1.62439         0.73068
H           2.57866        -0.46116         2.05241
H           4.91005         0.09591         1.33313
H           4.82491        -1.14384         0.09281
H           4.63014        -1.65565         3.13777
H           4.95959        -4.07101         2.55088
H           4.80505        -3.70659         0.83769
H           2.53702        -3.16066         2.81264
H           2.79252        -4.74523         2.04332
H           2.43747        -3.39794         1.04377
H           7.23249         0.17858         1.97341
H          10.89189        -0.74404         1.66775
H          11.25684        -2.46957         1.80898
H          11.27823        -1.39293         3.26938
H           8.73647        -3.57702         5.44155
H           9.86190        -2.22341         5.19459
H          10.70077        -4.96678         4.75215
H          11.37487        -3.65721         3.79051
H           8.71412        -5.17683         3.24341
H           9.82946        -4.53690         2.01713

