%chk=CCCC1CCCqCCrCNqCrC1.chk
%NProcShared=20
# opt freq b3lyp/6-31g(2df,p)

Title Card Required 

0  1
C           0.75979        -0.05386        -0.04759
C           2.27162        -0.02317        -0.06340
C           2.86798        -1.17330        -0.87313
C           4.41513        -1.23867        -0.83409
C           4.93217        -1.95145        -2.10226
C           6.45177        -2.03002        -2.29983
C           7.08332        -0.65085        -2.55451
C           8.34051        -0.80026        -3.43044
C           8.91582         0.53999        -3.86611
C           7.42720         0.12907        -1.26791
N           6.48595         0.07581        -0.16482
C           6.77652        -0.94697         0.83069
C           5.08657         0.13037        -0.58340
H           0.38269         0.81383         0.50231
H           0.39413        -0.96068         0.44124
H           0.36371        -0.01434        -1.06605
H           2.64177        -0.05586         0.96811
H           2.57740         0.93241        -0.50584
H           2.50715        -1.11304        -1.90588
H           2.48684        -2.12484        -0.47439
H           4.62728        -1.89257         0.01843
H           4.50873        -1.45666        -2.98693
H           4.53354        -2.97388        -2.11197
H           6.62121        -2.67316        -3.17226
H           6.94454        -2.54911        -1.47263
H           6.36377        -0.05457        -3.13611
H           8.09065        -1.37371        -4.33005
H           9.10567        -1.37098        -2.88860
H           8.16720         1.12059        -4.41594
H           9.77792         0.38444        -4.51976
H           9.25146         1.13505        -3.01210
H           7.50274         1.18984        -1.54336
H           8.43388        -0.13227        -0.91013
H           7.79706        -0.84900         1.21347
H           6.68153        -1.96932         0.45493
H           6.10052        -0.85327         1.68692
H           4.95597         0.77977        -1.45900
H           4.59145         0.66483         0.23177

