%chk=CCCCqCOrCCOCCCqCrN.chk
%NProcShared=20
# opt freq b3lyp/6-31g(2df,p)

Title Card Required 

0  1
C           0.96034         0.07839         0.03377
C           2.47291         0.05400         0.06495
C           3.08141        -0.21759        -1.30888
C           4.62412        -0.25498        -1.29476
C           5.19251        -1.35874        -0.37388
O           4.91071        -1.15478         1.00256
C           5.13155        -0.44065        -2.74124
C           6.64777        -0.40585        -2.80223
O           7.10079        -0.56441        -4.14094
C           8.52559        -0.62602        -4.12226
C           9.05821        -0.89251        -5.51662
C          10.59108        -0.91944        -5.51686
C          11.15656        -2.02423        -4.62083
N          11.06664        -1.10892        -6.88630
H           0.57963         0.24512         1.04638
H           0.57365        -0.88335        -0.31782
H           0.58710         0.87184        -0.61726
H           2.73914        -0.73901         0.76451
H           2.85965         0.99928         0.46315
H           2.74943         0.56718        -2.00286
H           2.69575        -1.16534        -1.70469
H           4.97370         0.72039        -0.92908
H           6.28048        -1.40015        -0.42071
H           4.80644        -2.33814        -0.67149
H           5.05634        -0.22035         1.20657
H           4.73189         0.34456        -3.39634
H           4.76925        -1.38849        -3.16007
H           7.06840        -1.22716        -2.21656
H           7.01877         0.54471        -2.40203
H           8.82539        -1.43306        -3.44506
H           8.92059         0.32200        -3.73860
H           8.68335        -0.11414        -6.19392
H           8.64458        -1.83878        -5.88952
H          10.96274         0.04844        -5.15912
H          10.78255        -3.00932        -4.92111
H          10.88775        -1.86938        -3.57095
H          12.25021        -2.04335        -4.65951
H          10.74423        -2.00926        -7.24056
H          12.08486        -1.14966        -6.89371

