%chk=CCCCCCqCrOCqCtNrCC.chk
%NProcShared=20
# opt freq b3lyp/6-31g(2df,p)

Title Card Required 

0  1
C           0.86900        -0.12236         0.00009
C           2.37823        -0.06403        -0.00977
C           2.85060         1.11137        -0.86393
C           4.35882         1.11351        -0.85259
C           4.97247         2.18954        -1.74205
C           6.50084         2.08527        -1.71595
C           6.89277         0.64201        -2.10659
O           7.01524         3.13536        -2.58729
C           8.45717         3.22625        -2.62513
C           8.96383         1.89826        -3.16377
N           9.38416         0.79658        -3.61062
C           8.94982         4.36951        -3.50884
C          10.47725         4.44767        -3.52921
H           0.52802        -0.94939         0.62875
H           0.48770        -0.27421        -1.01357
H           0.45708         0.81093         0.39217
H           2.77778        -1.00758        -0.40447
H           2.75962         0.03767         1.01263
H           2.46911         2.06057        -0.48145
H           2.49683         0.98716        -1.89356
H           4.62359         0.11725        -1.20760
H           4.74964         1.20904         0.16600
H           4.66594         3.18746        -1.40831
H           4.61361         2.08993        -2.77352
H           6.85826         2.29218        -0.70144
H           6.77645         0.48461        -3.18528
H           6.36293        -0.16297        -1.60552
H           7.90914         0.42107        -1.77566
H           8.81874         3.36694        -1.59930
H           8.54234         5.31764        -3.14022
H           8.57535         4.25142        -4.53287
H          10.87653         4.57856        -2.51764
H          10.81412         5.28805        -4.14230
H          10.92315         3.53895        -3.94908

