%chk=CCCCCCCCCOCC1CCC1CCO.chk
%NProcShared=20
# opt freq b3lyp/6-31g(2df,p)

Title Card Required 

0  1
C           1.04754        -0.07344         0.02192
C           2.56456        -0.06469         0.02565
C           3.09314         1.24961         0.58570
C           4.61523         1.25867         0.58957
C           5.13544         2.57330         1.14979
C           6.65735         2.58191         1.15342
C           7.16330         3.89910         1.71427
C           8.68156         3.94428         1.73070
C           9.13396         5.27928         2.29542
O          10.54984         5.31654         2.28527
C          11.04989         6.51501         2.85997
C          12.56648         6.45355         2.83496
C          13.24736         7.18910         4.01478
C          14.29813         6.06553         4.04042
C          13.25759         5.14757         3.34668
C          13.81418         4.20614         2.28360
C          12.71434         3.34334         1.67740
O          13.27982         2.43177         0.74168
H           0.67503        -1.01910        -0.38104
H           0.65633         0.74190        -0.59495
H           0.65633         0.04638         1.03728
H           2.93448        -0.21026        -0.99599
H           2.93448        -0.90240         0.62830
H           2.72096         1.39583         1.60727
H           2.72096         2.08772        -0.01644
H           4.99199         1.11714        -0.43069
H           4.99199         0.42474         1.19416
H           4.76039         2.71823         2.17071
H           4.76038         3.41003         0.54714
H           7.03388         2.44119         0.13310
H           7.03407         1.74870         1.75878
H           6.78012         4.03803         2.73292
H           6.77830         4.72960         1.10950
H           9.08631         3.80540         0.72019
H           9.08838         3.12199         2.33348
H           8.76661         5.39365         3.32158
H           8.74968         6.09943         1.67989
H          10.67227         6.60056         3.88444
H          10.69720         7.37402         2.27863
H          12.95856         6.77409         1.85853
H          12.64471         7.23340         4.93029
H          13.62255         8.19164         3.79488
H          14.60834         5.74602         5.03952
H          15.19021         6.28612         3.44427
H          12.65671         4.60442         4.09052
H          14.57617         3.55131         2.72297
H          14.32401         4.76351         1.48771
H          11.98161         3.94171         1.13481
H          12.19262         2.77125         2.45063
H          13.58925         2.96398        -0.00577

