%chk=CCCCCCC1CCCCqCrC1.chk
%NProcShared=20
# opt freq b3lyp/6-31g(2df,p)

Title Card Required 

0  1
C           1.03022        -0.04157         0.02401
C           2.54793        -0.04069         0.01935
C           3.08548        -1.03287        -1.00325
C           4.61080        -1.02658        -1.01937
C           5.12322        -1.98530        -2.08620
C           6.65021        -2.09976        -2.06905
C           7.16476        -3.30552        -1.25993
C           8.70295        -3.29775        -1.22654
C           9.25530        -4.51471        -0.48705
C           8.74252        -5.81962        -1.09308
C           7.21273        -5.85151        -1.12536
C           6.69402        -7.12022        -1.79973
C           6.66404        -4.62911        -1.86230
H           0.65368         0.67737         0.75681
H           0.64205        -1.03188         0.28256
H           0.63824         0.23392        -0.96048
H           2.91745        -0.29920         1.01861
H           2.91199         0.96638        -0.21326
H           2.70474        -0.78183        -2.00146
H           2.72359        -2.04131        -0.76654
H           4.99281        -1.31754        -0.03314
H           4.97890        -0.01597        -1.23031
H           4.80447        -1.62865        -3.07323
H           4.63426        -2.95115        -1.94590
H           7.08922        -1.17456        -1.67319
H           7.00428        -2.18890        -3.10273
H           6.79655        -3.22181        -0.23050
H           9.06344        -2.38303        -0.73876
H           9.09791        -3.28795        -2.24914
H           8.96837        -4.46167         0.56867
H          10.35134        -4.50020        -0.52303
H           9.11952        -6.66654        -0.50655
H           9.14097        -5.92966        -2.10775
H           6.83867        -5.83434        -0.09490
H           7.02177        -7.17708        -2.84248
H           5.59774        -7.13659        -1.79306
H           7.04693        -8.01406        -1.27730
H           5.57174        -4.68849        -1.81999
H           6.93939        -4.67369        -2.92261

