%chk=CCCC1COC1OCqCrOC.chk
%NProcShared=20
# opt freq b3lyp/6-31g(2df,p)

Title Card Required 

0  1
C           0.49641         0.32722         0.12530
C           2.00073         0.42964         0.09042
C           2.76061         1.69596         0.48696
C           4.30616         1.49841         0.42222
C           5.11809         2.45847         1.29862
O           6.08314         1.41378         1.59496
C           5.09691         0.39265         1.23645
O           5.68576        -0.76671         0.54731
C           4.75186        -1.79754         0.17150
C           4.01292        -1.28662        -1.03065
O           5.28991        -3.06752        -0.24265
C           4.23150        -3.97931        -0.60078
H           0.23347        -0.70730        -0.14850
H           0.04387         0.97371        -0.63029
H           0.08489         0.52815         1.11199
H           2.19542         0.26458        -0.97059
H           2.37663        -0.39200         0.70868
H           2.45886         2.00279         1.49044
H           2.48761         2.49940        -0.20922
H           4.66003         1.58689        -0.61806
H           4.61975         2.81012         2.20721
H           5.56340         3.30939         0.77282
H           4.58586         0.06523         2.14920
H           4.12634        -1.99109         1.05518
H           4.51791        -1.44920        -1.97806
H           3.97007        -0.20312        -0.98998
H           3.00520        -1.68918        -1.06729
H           4.65204        -4.89011        -1.03138
H           3.56022        -3.58248        -1.37301
H           3.63323        -4.22243         0.28259

