%chk=CCCCCCOCCCCCqCCCrOO.chk
%NProcShared=20
# opt freq b3lyp/6-31g(2df,p)

Title Card Required 

0  1
C           0.93410        -0.06638        -0.08457
C           2.45029        -0.05553        -0.08467
C           2.97442         1.37399        -0.07896
C           4.49368         1.38227        -0.07936
C           5.01415         2.80691        -0.07182
C           6.52485         2.80130        -0.06412
O           6.94339         4.15652        -0.02319
C           8.35345         4.22858         0.01638
C           8.75604         5.69770         0.11403
C          10.26303         5.73323         0.10882
C          10.93844         7.08316        -0.00524
C          12.48175         6.99989        -0.09044
C          13.04316         6.28151        -1.34753
C          12.74954         4.78439        -1.45415
C          13.29704         4.10473        -2.68497
O          12.92930         8.37263        -0.10671
O          14.36947         8.35618         0.11259
H           0.56275        -1.09452        -0.08888
H           0.54319         0.44575        -0.96954
H           0.54329         0.43825         0.80476
H           2.82178        -0.58553        -0.96956
H           2.82187        -0.59274         0.79587
H           2.60344         1.90510         0.80629
H           2.60301         1.91274        -0.95931
H           4.87174         0.85577        -0.96429
H           4.87084         0.84757         0.80119
H           4.64609         3.35310         0.80591
H           4.65246         3.36161        -0.94684
H           6.91415         2.31243        -0.96587
H           6.90139         2.27143         0.81904
H           8.76217         3.76853        -0.89592
H           8.73934         3.66828         0.87748
H           8.33009         6.17446         0.99837
H           8.36815         6.22660        -0.76630
H          10.42881         5.21866        -0.81435
H          10.69354         5.13913         0.92353
H          10.65447         7.70122         0.85550
H          10.56182         7.61330        -0.88915
H          12.86807         6.52694         0.82335
H          14.13327         6.40519        -1.36520
H          12.67939         6.80559        -2.23973
H          11.70497         4.60510        -1.63061
H          13.02891         4.26269        -0.53261
H          12.90873         4.60197        -3.58071
H          12.92020         3.07396        -2.70306
H          14.38397         4.09209        -2.70307
H          14.51278         9.29699        -0.05434

