%chk=CCCCC1CCCOCCC1C1CO1.chk
%NProcShared=20
# opt freq b3lyp/6-31g(2df,p)

Title Card Required 

0  1
C           0.81892         0.10627        -0.06052
C           2.32647         0.09092        -0.13760
C           2.83391        -1.31657        -0.41945
C           4.32254        -1.23691        -0.73031
C           5.03093        -2.58465        -0.47779
C           4.92686        -3.41260        -1.77788
C           5.46788        -4.84198        -1.77548
C           5.14926        -5.63011        -0.50935
O           6.28821        -5.76859         0.33758
C           6.62084        -4.62461         1.12312
C           7.33500        -3.54777         0.30764
C           6.46730        -2.30962         0.03071
C           6.52272        -1.35266         1.21932
C           5.32818        -1.01234         2.11579
O           6.35339        -1.91199         2.53407
H           0.46282         1.12964         0.07830
H           0.46926        -0.50463         0.77718
H           0.38945        -0.29154        -0.98460
H           2.74776         0.45352         0.80983
H           2.66894         0.77372        -0.92302
H           2.30684        -1.77541        -1.26197
H           2.63558        -1.94300         0.46076
H           4.74819        -0.43625        -0.12315
H           4.48670        -0.88883        -1.75564
H           4.48303        -3.11018         0.31178
H           5.40854        -2.86497        -2.59876
H           3.86461        -3.47805        -2.05348
H           6.54039        -4.84237        -1.98745
H           5.01558        -5.35466        -2.63474
H           4.87781        -6.64892        -0.80677
H           4.28639        -5.24201         0.04274
H           7.31666        -4.97865         1.89146
H           5.73894        -4.26278         1.66016
H           7.72157        -3.95598        -0.63009
H           8.23087        -3.22083         0.85154
H           6.97103        -1.76949        -0.78600
H           7.31291        -0.62385         1.11455
H           4.34975        -1.44775         1.98113
H           5.29335         0.01877         2.44909

