%chk=CCCCCqCCrCqCrqCrF.chk
%NProcShared=20
# opt freq b3lyp/6-31g(2df,p)

Title Card Required 

0  1
C           1.02240         0.06491        -0.21057
C           2.54178         0.11488        -0.26765
C           3.04391         0.55947         1.09482
C           4.54853         0.49213         1.24198
C           5.08432         0.89693         2.63817
C           4.59053        -0.00713         3.81161
C           3.10127        -0.01624         4.14033
C           6.65220         0.92498         2.61840
C           7.27804        -0.45239         2.38195
C           7.21868         1.92628         1.60615
F           7.07372         1.35177         3.85130
H           0.60564        -0.27962        -1.15752
H           0.61287         1.05225         0.02374
H           0.69198        -0.62494         0.57802
H           2.88490         0.79664        -1.05527
H           2.92849        -0.88384        -0.49552
H           2.59522        -0.15858         1.77091
H           2.67199         1.55326         1.35549
H           4.96694         1.15894         0.47758
H           4.88277        -0.51938         0.99904
H           4.74536         1.91841         2.86117
H           5.10133         0.32041         4.72640
H           4.89088        -1.04395         3.63553
H           2.66129         0.98312         4.08691
H           2.93544        -0.41995         5.14322
H           2.54569        -0.70247         3.49882
H           6.99888        -0.86832         1.40969
H           6.98745        -1.16271         3.16112
H           8.37016        -0.39472         2.42072
H           6.99149         1.65476         0.57154
H           8.30947         1.98404         1.69173
H           6.83305         2.93256         1.79921

