%chk=CCCCCqCrCC1qCrCCCCOO1.chk
%NProcShared=20
# opt freq b3lyp/6-31g(2df,p)

Title Card Required 

0  1
C           0.89038        -0.13281         0.01774
C           2.41195        -0.14057        -0.00154
C           2.91546         1.28343        -0.17895
C           4.44001         1.39161        -0.14821
C           4.90952         2.86800        -0.24458
C           4.32094         3.66093         0.93478
C           6.45338         2.90231        -0.24040
C           7.15390         4.28108        -0.47415
C           8.48321         4.23659         0.30648
C           7.36853         4.47561        -1.98579
C           7.99332         5.82625        -2.34670
C           7.01584         6.98018        -2.12289
C           6.98226         7.49395        -0.68477
O           7.14862         6.49431         0.31407
O           6.31236         5.36044        -0.04188
H           0.50212        -1.14512         0.15367
H           0.49215         0.27184        -0.91739
H           0.51581         0.48969         0.83945
H           2.77678        -0.77782        -0.81473
H           2.78479        -0.55274         0.94118
H           2.47876         1.86192         0.64111
H           2.53931         1.71002        -1.11312
H           4.85891         0.81016        -0.98262
H           4.82501         0.93946         0.77221
H           4.54751         3.28556        -1.18889
H           4.69298         3.27155         1.88520
H           3.23043         3.63391         0.94549
H           4.53460         4.72642         0.89988
H           6.83027         2.19357        -0.99478
H           6.78600         2.47994         0.71623
H           9.13515         3.44128        -0.06473
H           8.28667         4.06392         1.37164
H           9.04406         5.17451         0.25929
H           6.39704         4.40618        -2.49761
H           7.98938         3.66793        -2.38990
H           8.27146         5.79756        -3.40553
H           8.92132         5.99184        -1.78919
H           6.00539         6.66639        -2.41472
H           7.27437         7.81478        -2.78417
H           6.05886         8.05183        -0.49408
H           7.81307         8.19335        -0.54386

