%chk=CCCCdCqCrC1CC12CC1CqOCrCC12OC.chk
%NProcShared=20
# opt freq b3lyp/6-31g(2df,p)

Title Card Required 

0  1
C           1.02531         0.02454        -0.01738
C           2.53948        -0.00324        -0.01456
C           3.06649         1.34199        -0.45358
C           4.56538         1.36802        -0.46634
C           5.26362         2.45545        -0.76520
C           4.49768         3.71768        -1.14798
C           6.76004         2.46592        -0.63573
C           7.56618         1.86428        -1.76809
C           7.59191         3.34563        -1.49777
C           8.93986         3.98619        -1.32844
C           8.13266         5.17979        -1.00220
C           7.89022         6.48760        -1.66476
O           8.74578         6.80699        -2.76653
C          10.05344         7.16798        -2.33033
C           6.44757         5.96577        -1.81573
C           7.02696         4.55245        -2.16532
O           7.11149         4.43886        -3.62142
C           6.65778         3.21112        -4.22247
H           0.63409        -0.94603         0.29201
H           0.64504         0.25383        -1.01851
H           0.65030         0.78986         0.67069
H           2.90427        -0.78138        -0.69403
H           2.90941        -0.23559         0.99081
H           2.70206         2.11005         0.24336
H           2.68520         1.57722        -1.45600
H           5.09880         0.46388        -0.16541
H           3.40859         3.62324        -1.13257
H           4.69205         4.03255        -2.17561
H           4.70910         4.50487        -0.42717
H           7.11690         2.27276         0.36916
H           7.04685         1.38094        -2.58201
H           8.51892         1.36230        -1.60533
H           9.62394         4.08592        -2.17310
H           9.48575         3.56915        -0.47366
H           7.93490         5.24630         0.07904
H           7.87209         7.34078        -0.97191
H          10.71435         7.23469        -3.19216
H          10.45121         6.42012        -1.63342
H           9.99879         8.12969        -1.81267
H           5.85906         6.46668        -2.58766
H           5.87988         6.04721        -0.87768
H           6.14504         3.35596        -5.17821
H           5.94292         2.64633        -3.60912
H           7.55378         2.61422        -4.41382

