%chk=CCCCOCCCSCCqNrOOCCC.chk
%NProcShared=20
# opt freq b3lyp/6-31g(2df,p)

Title Card Required 

0  1
C           0.99924        -0.07767         0.05566
C           2.51668        -0.08710         0.04608
C           3.06427        -1.08723        -0.96847
C           4.58553        -1.07462        -0.95584
O           5.08020        -2.01264        -1.90838
C           6.50804        -2.01633        -1.91055
C           6.99759        -3.02686        -2.93323
C           8.52356        -3.07599        -2.97745
S           8.97901        -4.32292        -4.21427
C          10.80879        -4.23330        -4.15617
C          11.39243        -5.20351        -5.21029
N          10.91971        -4.88016        -6.56214
O          12.82031        -5.14255        -5.15107
O          13.28416        -6.21397        -6.03414
C          14.70042        -6.12134        -6.04908
C          15.22753        -7.11513        -7.07409
C          16.74362        -7.12920        -7.09805
H           0.63039         0.64563         0.78932
H           0.60501        -1.06381         0.31991
H           0.60500         0.20057        -0.92662
H           2.88310        -0.33678         1.04902
H           2.88307         0.91930        -0.18926
H           2.70106        -0.85029        -1.97623
H           2.70118        -2.09830        -0.74586
H           4.95233        -1.34552         0.04078
H           4.95229        -0.07406        -1.21180
H           6.87018        -2.28688        -0.91247
H           6.87147        -1.01516        -2.16766
H           6.58659        -2.76385        -3.91737
H           6.58210        -4.01268        -2.68437
H           8.92816        -3.35781        -1.99988
H           8.93061        -2.09950        -3.26071
H          11.17014        -4.50248        -3.15706
H          11.14534        -3.20918        -4.35853
H          11.08935        -6.22661        -4.95486
H          11.25032        -3.95098        -6.79314
H           9.89936        -4.82037        -6.51347
H          15.07446        -6.36241        -5.04891
H          15.00436        -5.10181        -6.31177
H          14.83791        -6.86369        -8.06842
H          14.84619        -8.11835        -6.84795
H          17.13823        -6.14304        -7.36225
H          17.10745        -7.85227        -7.83397
H          17.14388        -7.40830        -6.11815

