%chk=CCCCCdCdCCCqCrCCCCCC.chk
%NProcShared=20
# opt freq b3lyp/6-31g(2df,p)

Title Card Required 

0  1
C           0.98437         0.02922         0.09083
C           2.50200         0.04110         0.09268
C           3.02928         1.45740         0.30090
C           4.55374         1.47277         0.30454
C           5.09101         2.85515         0.51032
C           6.35777         3.12671         0.52360
C           7.63359         3.37139         0.52318
C           8.60584         2.73510        -0.42614
C          10.06039         3.14462        -0.14226
C          10.48067         2.72509         1.27334
C          10.98912         2.51207        -1.19080
C          12.43710         2.93723        -0.97722
C          13.35494         2.29110        -1.99545
C          14.78978         2.72083        -1.72731
C          15.72793         2.07863        -2.73565
C          17.15700         2.51104        -2.47761
H           0.61200        -0.98809        -0.05831
H           0.59269         0.66030        -0.71331
H           0.59263         0.40290         1.04227
H           2.87161        -0.35978        -0.85845
H           2.87138        -0.61628         0.88851
H           2.65077         1.85586         1.25092
H           2.65221         2.11199        -0.49536
H           4.92646         1.07834        -0.64894
H           4.92583         0.81785         1.10200
H           4.39172         3.67765         0.62899
H           8.00925         4.05462         1.27748
H           8.33641         3.02285        -1.45070
H           8.51746         1.64221        -0.36453
H          10.14003         4.23742        -0.22669
H          10.44180         1.63570         1.37573
H           9.84057         3.16525         2.04023
H          11.49262         3.05872         1.51373
H          10.67125         2.80708        -2.19958
H          10.91520         1.41791        -1.14437
H          12.78730         2.63506         0.01426
H          12.51400         4.03007        -1.03087
H          13.05317         2.57873        -3.00833
H          13.27484         1.19958        -1.92140
H          15.08209         2.43254        -0.70896
H          14.86564         3.81397        -1.78419
H          15.43222         2.36569        -3.75116
H          15.65429         0.98693        -2.66898
H          17.25192         3.59860        -2.55827
H          17.82792         2.04970        -3.20646
H          17.47645         2.21225        -1.47407

