%chk=CCCC1CCCCqCrCCCNqCOCrCO1.chk
%NProcShared=20
# opt freq b3lyp/6-31g(2df,p)

Title Card Required 

0  1
C           0.90434         0.02300        -0.09707
C           2.42345         0.04132        -0.13926
C           2.99588        -1.34183         0.14370
C           4.52909        -1.35457         0.24662
C           4.96764        -2.78291         0.63066
C           6.31082        -2.74514         1.35444
C           7.46505        -3.26157         0.49636
C           8.82830        -2.66271         0.90219
C           9.11795        -2.94420         2.38057
C           8.90642        -1.14738         0.62609
C           8.77411        -0.79579        -0.85943
C           8.09071         0.55644        -1.07766
N           6.87248         0.42097        -1.89825
C           6.80260         1.52594        -2.84533
O           5.69548         1.40684        -3.73106
C           5.66019         2.48172        -4.65842
C           5.65510         0.32840        -1.07396
O           5.19960        -1.02524        -0.97644
H           0.51130         1.01868        -0.32318
H           0.54084        -0.27066         0.89348
H           0.50317        -0.68005        -0.83275
H           2.79672         0.75824         0.59947
H           2.74138         0.37990        -1.12898
H           2.65502        -2.04832        -0.61909
H           2.58827        -1.68543         1.10718
H           4.81229        -0.65994         1.04187
H           5.01254        -3.42605        -0.25538
H           4.23881        -3.22844         1.31758
H           6.24503        -3.36438         2.25649
H           6.49997        -1.73185         1.71387
H           7.26670        -3.07467        -0.56242
H           7.50730        -4.35369         0.59009
H           9.60537        -3.15861         0.30607
H           8.39312        -2.45108         3.03781
H          10.11142        -2.58265         2.66145
H           9.07686        -4.01965         2.58241
H           9.86882        -0.76038         0.98640
H           8.14832        -0.62057         1.21365
H           8.25940        -1.57071        -1.43224
H           9.78219        -0.76185        -1.29345
H           8.82930         1.18733        -1.59401
H           7.89577         1.08776        -0.13910
H           7.71219         1.52029        -3.46296
H           6.74857         2.48787        -2.31832
H           4.78997         2.35399        -5.30544
H           6.56197         2.48657        -5.27984
H           5.56599         3.43550        -4.12917
H           4.83674         0.91245        -1.50793
H           5.82440         0.75228        -0.08040

