%chk=CCCN1CCqCrOCCqNCrN1C.chk
%NProcShared=20
# opt freq b3lyp/6-31g(2df,p)

Title Card Required 

0  1
C           0.80384        -0.15190        -0.08058
C           2.30410        -0.23586        -0.26472
C           3.01836        -0.73277         0.99850
N           4.49982        -0.64000         1.02806
C           5.05081        -1.93409         0.51984
C           6.57023        -2.17413         0.58716
C           7.17526        -2.02219         1.97332
O           7.22667        -1.43187        -0.42756
C           7.48808        -0.05894        -0.16895
C           6.48176         0.82836         0.64178
N           6.83431         1.11529         2.05079
C           5.85583         1.14673         3.11939
N           5.04792         0.58356         0.31326
C           4.37896         1.88255         0.59024
H           0.38858         0.49048        -0.86479
H           0.54826         0.30956         0.88046
H           0.34264        -1.13706        -0.14557
H           2.56958         0.77196        -0.54184
H           2.59329        -0.81926        -1.14144
H           2.70642        -1.77950         1.15242
H           2.65001        -0.22126         1.89590
H           4.70558        -2.11910        -0.50616
H           4.62574        -2.73934         1.14160
H           6.74256        -3.22352         0.30604
H           6.82238        -1.11855         2.43674
H           8.26779        -1.96869         1.94001
H           6.85084        -2.80064         2.66543
H           7.59312         0.39242        -1.16504
H           8.48696         0.00102         0.27823
H           6.71898         1.80295         0.19262
H           7.68998         0.62475         2.33336
H           4.90478         0.63647         2.93936
H           5.62754         2.18814         3.37076
H           6.24264         0.67923         4.02813
H           4.81954         2.63913        -0.07155
H           4.47764         2.24616         1.60714
H           3.31472         1.98732         0.41751

