%chk=CCCOCCCNCqCrCC1CCCCO1.chk
%NProcShared=20
# opt freq b3lyp/6-31g(2df,p)

Title Card Required 

0  1
C           1.05131         0.02546        -0.06592
C           2.56590         0.04187        -0.04112
C           3.06185         0.76842         1.19311
O           4.48270         0.77288         1.16591
C           4.98768         1.43773         2.31228
C           6.50269         1.41147         2.25932
C           7.01403         2.09638         3.50559
N           8.47202         2.00464         3.59066
C           8.91819         2.60767         4.85610
C           8.45224         1.78426         6.05979
C          10.43391         2.82044         4.85295
C          10.96099         3.70922         6.01025
C           9.96401         4.58771         6.78781
C           9.43261         5.74949         5.96084
C          10.59019         6.54121         5.39109
C          11.60172         5.62921         4.70630
O          12.03088         4.55176         5.54442
H           0.68904        -0.49572        -0.95533
H           0.65458         1.04595        -0.07715
H           0.65588        -0.48374         0.81908
H           2.95885         0.53022        -0.94073
H           2.96073        -0.98108        -0.05243
H           2.71309         0.26064         2.10041
H           2.69643         1.80199         1.20085
H           4.63239         0.92962         3.21807
H           4.62705         2.47368         2.33010
H           6.86435         1.90708         1.35188
H           6.85368         0.37353         2.21578
H           6.54811         1.60433         4.36190
H           6.69546         3.14760         3.51148
H           8.87547         2.50893         2.80424
H           8.43819         3.58001         4.89310
H           8.65440         0.72029         5.91790
H           7.37841         1.92408         6.22669
H           8.93834         2.07309         6.99183
H          10.75861         3.21675         3.88413
H          10.93606         1.84298         4.91016
H          11.41934         3.02403         6.73631
H          10.49525         5.00650         7.65274
H           9.12809         4.03111         7.21147
H           8.78611         6.37819         6.58163
H           8.80762         5.41943         5.12881
H          11.07498         7.07632         6.21387
H          10.21139         7.28339         4.68110
H          12.48949         6.20910         4.43896
H          11.19139         5.23499         3.77148

