%chk=CCCOC1CqCrCCCCC1CCqCrCC.chk
%NProcShared=20
# opt freq b3lyp/6-31g(2df,p)

Title Card Required 

0  1
C           0.72448        -0.21214         0.09589
C           2.23132        -0.34112         0.04901
C           2.64733        -0.43430        -1.42050
O           4.05553        -0.53281        -1.56539
C           4.69108        -0.14818        -2.79945
C           4.58365        -1.39989        -3.70093
C           3.14448        -1.91615        -3.83311
C           5.20877        -1.27871        -5.08175
C           4.36085        -0.41315        -6.00151
C           4.75077         1.04982        -5.98256
C           5.18282         1.63887        -4.63257
C           4.31819         1.26776        -3.37842
C           4.45006         2.48514        -2.35613
C           3.85059         2.31633        -0.93409
C           4.82781         1.55382         0.00105
C           3.48893         3.60468        -0.16502
C           2.51861         3.27404         0.99304
H           0.37323        -0.20079         1.12909
H           0.26075        -1.05297        -0.43222
H           0.41061         0.71325        -0.39207
H           2.59886        -1.20231         0.60037
H           2.64838         0.52400         0.57142
H           2.22617         0.34936        -2.03345
H           2.17301        -1.36527        -1.73366
H           5.76204        -0.05965        -2.54547
H           5.13441        -2.19293        -3.17187
H           2.43639        -1.08107        -3.91544
H           2.89148        -2.53523        -2.97041
H           2.99710        -2.56442        -4.69573
H           5.25943        -2.29309        -5.49920
H           6.24668        -0.93031        -5.02263
H           3.29597        -0.46897        -5.75646
H           4.42515        -0.80584        -7.02217
H           3.90286         1.62693        -6.37129
H           5.56529         1.19276        -6.70493
H           5.18336         2.72874        -4.77545
H           6.23350         1.37925        -4.44739
H           3.27354         1.24439        -3.70305
H           3.94441         3.33814        -2.83893
H           5.49849         2.77767        -2.26762
H           2.87873         1.88054        -1.08378
H           5.85137         1.85393        -0.17337
H           4.82749         0.46916        -0.05181
H           4.59913         1.70748         1.05727
H           2.99830         4.33244        -0.82370
H           4.39548         4.05859         0.23003
H           1.55685         2.91859         0.61333
H           2.34542         4.15236         1.62021
H           2.89155         2.49167         1.66378

