%chk=CCCqCCrOCqCrCCqCrC.chk
%NProcShared=20
# opt freq b3lyp/6-31g(2df,p)

Title Card Required 

0  1
C           1.08720        -0.50201         0.18892
C           2.58065        -0.22907         0.07705
C           2.91706         0.81110        -1.00168
C           2.20016         2.13929        -0.69775
C           0.70901         2.36475        -0.77918
O           4.37964         0.97534        -1.03815
C           4.91622         1.77670        -2.12707
C           4.52720         3.23513        -1.94702
C           6.47623         1.73824        -2.17340
C           7.15242         2.59467        -3.31330
C           6.95606         4.12668        -3.30826
C           8.66843         2.42505        -3.27720
H           0.88103        -1.37862         0.80392
H           0.63412        -0.64247        -0.79858
H           0.58120         0.31949         0.69444
H           3.10373        -1.16773        -0.13882
H           2.96366         0.11257         1.04701
H           2.61297         0.42387        -1.98254
H           2.38248         2.71071        -1.57035
H           2.66406         2.65213         0.15376
H           0.30251         1.85428        -1.65718
H           0.54661         3.44201        -0.93504
H           0.15845         2.11436         0.12048
H           4.54115         1.36116        -3.07102
H           4.70947         3.56915        -0.91172
H           3.55042         3.49011        -2.30393
H           4.98417         3.89183        -2.60015
H           6.79240         0.68861        -2.29273
H           6.87779         2.03226        -1.19327
H           6.77525         2.21289        -4.27081
H           6.94901         4.51715        -2.28129
H           6.05492         4.42882        -3.85661
H           7.73062         4.66365        -3.85730
H           9.06855         2.80459        -2.33010
H           9.12574         3.00989        -4.08536
H           8.96685         1.38515        -3.40684

