%chk=CCCqCrCCCqCrCCCCCqCrCCO.chk
%NProcShared=20
# opt freq b3lyp/6-31g(2df,p)

Title Card Required 

0  1
C           0.90862        -0.02639         0.08709
C           2.42392        -0.08262         0.00707
C           2.92857        -1.35178        -0.70068
C           2.41797        -1.44590        -2.13997
C           4.45957        -1.35820        -0.65714
C           5.05695        -2.62575        -1.25998
C           6.58485        -2.62366        -1.20816
C           7.09970        -2.53404         0.23033
C           7.08810        -3.88962        -1.90591
C           8.60637        -3.92179        -1.94475
C           9.07961        -5.18626        -2.61829
C          10.60189        -5.21905        -2.65127
C          11.11637        -6.48664        -3.34209
C          10.58939        -6.57461        -4.77917
C          12.65068        -6.50044        -3.30393
C          13.23207        -7.76633        -3.91911
O          14.65102        -7.72086        -3.85418
H           0.58906         0.87094         0.62265
H           0.51938        -0.90388         0.61267
H           0.45692         0.01027        -0.90753
H           2.82810        -0.04611         1.02759
H           2.79839         0.80983        -0.50945
H           2.56775        -2.22654        -0.14319
H           2.77574        -0.59817        -2.73329
H           1.32730        -1.46639        -2.18077
H           2.74622        -2.36762        -2.62739
H           4.76081        -1.26997         0.39199
H           4.86211        -0.48064        -1.17904
H           4.76268        -2.71667        -2.31146
H           4.65897        -3.50729        -0.74138
H           6.95026        -1.75287        -1.76901
H           6.75692        -3.39334         0.81574
H           6.76753        -1.61928         0.72422
H           8.19034        -2.49942         0.27237
H           6.69804        -3.92860        -2.93332
H           6.70453        -4.78316        -1.39609
H           9.02846        -3.90067        -0.93748
H           8.97888        -3.04189        -2.48332
H           8.65640        -5.20362        -3.62584
H           8.70078        -6.06532        -2.08257
H          10.98600        -5.17384        -1.62268
H          10.98027        -4.32528        -3.16434
H          10.74701        -7.35474        -2.78023
H          10.92068        -5.71075        -5.36501
H           9.49786        -6.61306        -4.81405
H          10.92114        -7.48577        -5.27921
H          13.00237        -6.41623        -2.26638
H          13.05295        -5.61842        -3.81882
H          12.95879        -7.87170        -4.97198
H          12.88139        -8.65132        -3.38185
H          14.93431        -6.97427        -4.39690

