%chk=CCCqCrCC1CCSqdC2CdCC2rCC1CC.chk
%NProcShared=20
# opt freq b3lyp/6-31g(2df,p)

Title Card Required 

0  1
C           0.95426         0.04303        -0.14619
C           2.46893         0.04862        -0.07027
C           2.97418         0.86712         1.12510
C           2.45795         0.30993         2.45620
C           4.50597         0.85999         1.09676
C           5.13348         1.73179         2.19663
C           6.60490         1.36717         2.38011
C           7.44386         1.66009         1.15394
S           7.45809         3.36740         0.58831
C           8.03386         4.19963         1.97688
C           8.69872         3.88329         3.23358
C           8.56440         5.17865         3.65163
C           7.94224         5.65324         2.33654
C           5.68037         3.71850         0.68997
C           4.92616         3.24061         1.94833
C           5.25121         4.07903         3.19233
C           4.50564         3.76678         4.46915
H           0.61821        -0.52661        -1.01442
H           0.57322         1.06625        -0.22334
H           0.51342        -0.42272         0.73863
H           2.86867         0.47291        -1.00115
H           2.84413        -0.97983        -0.00584
H           2.60862         1.89363         1.00589
H           2.82104        -0.71191         2.60759
H           1.36826         0.30693         2.50227
H           2.77394         0.91399         3.30984
H           4.84586         1.17868         0.10532
H           4.85973        -0.17310         1.20993
H           4.66170         1.46537         3.14144
H           6.67260         0.29539         2.60850
H           6.99740         1.85913         3.27268
H           7.07828         1.06244         0.31149
H           8.47644         1.34519         1.32464
H           9.04550         2.99453         3.74799
H           8.77193         5.68536         4.58520
H           8.54250         6.30327         1.70051
H           6.92868         6.05518         2.39805
H           5.24236         3.23863        -0.19485
H           5.53622         4.79197         0.52673
H           3.86209         3.43089         1.75811
H           5.12619         5.14094         2.96199
H           6.27381         3.90384         3.47598
H           3.44068         3.96717         4.36256
H           4.91378         4.39611         5.26873
H           4.66263         2.73244         4.78363

