%chk=CCCqCrCCqCrCCCCCOO.chk
%NProcShared=20
# opt freq b3lyp/6-31g(2df,p)

Title Card Required 

0  1
C           0.97289        -0.29307        -0.02844
C           2.49424        -0.15260        -0.03147
C           2.95157         1.19434        -0.62965
C           2.29715         2.32452         0.16940
C           4.50246         1.27617        -0.66249
C           5.09435         2.54530        -1.33078
C           4.71328         3.84928        -0.61897
C           6.63139         2.44962        -1.38392
C           7.22035         3.67629        -2.07711
C           8.72755         3.67945        -2.07059
C           9.21091         4.97530        -2.70799
C          10.72038         5.01444        -2.70728
O          11.14327         6.22041        -3.32744
O          12.59492         6.17321        -3.30139
H           0.67067        -1.26592         0.36147
H           0.57497        -0.16959        -1.04072
H           0.48743         0.44462         0.61626
H           2.92185        -0.98300        -0.60573
H           2.86823        -0.24677         0.99562
H           2.59848         1.24395        -1.66835
H           2.79293         2.46054         1.13541
H           1.23517         2.18247         0.35045
H           2.27232         3.25150        -0.38770
H           4.87729         0.39890        -1.21408
H           4.90346         1.17342         0.35468
H           4.72239         2.58272        -2.36354
H           4.87546         3.76906         0.45965
H           3.70187         4.15406        -0.84601
H           5.24105         4.73185        -0.96801
H           6.94084         1.54452        -1.92177
H           7.03282         2.36815        -0.36556
H           6.94705         4.59597        -1.55892
H           6.82470         3.75331        -3.09694
H           9.10947         2.80765        -2.60902
H           9.08491         3.62347        -1.03458
H           8.81725         5.84803        -2.16695
H           8.82635         5.06806        -3.73214
H          11.11634         4.15779        -3.26414
H          11.09774         4.98206        -1.67841
H          12.73367         7.01925        -3.74489

