%chk=CCCqCCCNrC1CCqCrCqCrC1.chk
%NProcShared=20
# opt freq b3lyp/6-31g(2df,p)

Title Card Required 

0  1
C           0.86552         0.14325         0.29582
C           2.35823         0.10237         0.00356
C           2.88216        -0.96939        -0.99582
C           2.43213        -0.73533        -2.46839
C           0.92043        -0.79089        -2.65413
C           0.41491        -0.48806        -4.05228
N          -1.04407        -0.42233        -3.97902
C           4.44337        -1.03806        -0.95749
C           5.08195        -0.69906         0.39293
C           6.49873        -1.24783         0.30872
C           7.44538        -0.25036        -0.35635
C           6.31272        -2.57426        -0.45198
C           7.50618        -2.98163        -1.30393
C           5.01556        -2.43028        -1.27740
H           0.68643         0.65591         1.24482
H           0.44311        -0.86400         0.36127
H           0.31146         0.73921        -0.42820
H           2.79539        -0.09611         0.98617
H           2.70755         1.09434        -0.30332
H           2.48854        -1.94256        -0.67229
H           2.89581        -1.48689        -3.12048
H           2.80095         0.24238        -2.80401
H           0.47961        -0.00152        -2.06521
H           0.53051        -1.74696        -2.28310
H           0.73733        -1.24318        -4.77235
H           0.78925         0.49087        -4.37404
H          -1.41747        -1.31605        -3.64723
H          -1.44367        -0.24270        -4.88987
H           4.84202        -0.33392        -1.70175
H           4.55551        -1.20709         1.20926
H           5.06867         0.37956         0.58605
H           6.87204        -1.44028         1.32247
H           7.14775        -0.03251        -1.38672
H           8.46806        -0.64009        -0.37123
H           7.46558         0.69477         0.19506
H           6.14453        -3.36797         0.29061
H           7.69823        -2.24961        -2.09543
H           7.33188        -3.94682        -1.78680
H           8.40731        -3.06460        -0.68721
H           4.31835        -3.22383        -0.98135
H           5.19131        -2.54610        -2.35238

