%chk=CCNCCC1CCdCqCNCrC1.chk
%NProcShared=20
# opt freq b3lyp/6-31g(2df,p)

Title Card Required 

0  1
C           0.88576        -0.06018         0.05467
C           2.39583        -0.07865         0.04426
N           2.84938        -1.04922        -0.95389
C           4.30259        -1.02738        -0.96137
C           4.90623        -1.97023        -1.99005
C           6.45761        -1.98044        -1.97291
C           7.13455        -0.84079        -1.17436
C           7.54369        -1.50673         0.09476
C           7.47003        -2.83703         0.01634
C           7.83309        -3.78103         1.11696
N           7.71871        -5.17892         0.71534
C           8.09343        -6.06022         1.81002
C           6.98750        -3.28073        -1.33197
H           0.52663         0.65157         0.80250
H           0.49096        -1.05095         0.30001
H           0.49567         0.23904        -0.92335
H           2.76762        -0.35372         1.03905
H           2.77368         0.92552        -0.18841
H           2.50761        -0.77605        -1.87515
H           4.67644        -1.28687         0.03530
H           4.59485        -0.00357        -1.21232
H           4.57267        -1.67037        -2.99239
H           4.50454        -2.98194        -1.84547
H           6.79109        -1.94145        -3.01818
H           6.50086         0.01597        -0.94905
H           8.00343        -0.43892        -1.70166
H           7.84995        -0.95630         0.97662
H           7.17140        -3.58738         1.97015
H           8.86334        -3.56902         1.42886
H           8.34170        -5.34474        -0.07319
H           7.44034        -5.91577         2.67653
H           9.13305        -5.89800         2.11210
H           7.99286        -7.10095         1.48857
H           6.21450        -4.05145        -1.25457
H           7.81905        -3.69082        -1.91618

