%chk=CCqCrCC1NCCCCCqCrO1.chk
%NProcShared=20
# opt freq b3lyp/6-31g(2df,p)

Title Card Required 

0  1
C           1.03680         0.06164         0.03925
C           2.56134        -0.07402         0.04328
C           2.87588        -1.55427         0.30227
C           3.15516         0.46188        -1.28973
C           4.69653         0.61179        -1.31441
N           5.34297        -0.50685        -0.67132
C           6.64041        -0.33490        -0.04794
C           6.98098         1.08024         0.42462
C           7.73114         1.90045        -0.63215
C           6.95377         2.28707        -1.90001
C           6.55987         1.07342        -2.76278
C           6.92629         1.30315        -4.22516
O           5.15847         0.76990        -2.65792
H           0.61614        -0.33675         0.97012
H           0.60118        -0.50275        -0.79214
H           0.72454         1.10587        -0.04670
H           2.95383         0.52656         0.87533
H           2.64776        -2.15553        -0.58354
H           2.29869        -1.93924         1.14735
H           3.91395        -1.73572         0.58086
H           2.75088         1.47678        -1.44667
H           2.79303        -0.11861        -2.14515
H           4.83624         1.54252        -0.77291
H           5.27868        -1.33800        -1.24083
H           7.42680        -0.71049        -0.71199
H           6.67332        -1.01039         0.81491
H           7.62052         0.99739         1.31148
H           6.09442         1.61797         0.78341
H           8.63269         1.34856        -0.92725
H           8.07985         2.82382        -0.15576
H           7.59624         2.96229        -2.47590
H           6.07730         2.88762        -1.63072
H           7.13459         0.18378        -2.49562
H           6.34055         2.11341        -4.66470
H           6.73859         0.39849        -4.81402
H           7.99353         1.54042        -4.31389

