%chk=CCqCOrCOCC1CCqCrC1O.chk
%NProcShared=20
# opt freq b3lyp/6-31g(2df,p)

Title Card Required 

0  1
C           0.91392         0.04452         0.03941
C           2.44276         0.08048         0.04771
C           2.97770         1.18536        -0.86968
O           2.51670         0.99991        -2.20430
C           2.93467         0.27804         1.48146
O           4.35922         0.26647         1.51388
C           4.83649         0.49292         2.84071
C           6.34912         0.48974         2.80140
C           7.02776         1.68586         2.08626
C           8.11534         1.64778         3.19088
C           9.35723         0.82949         2.86735
C           7.05119         0.96787         4.10186
O           7.50291        -0.05533         5.00886
H           0.52267        -0.13072        -0.96703
H           0.50054         0.99078         0.40575
H           0.54243        -0.75768         0.68595
H           2.81169        -0.88160        -0.33203
H           4.07232         1.19779        -0.89175
H           2.63720         2.16989        -0.53229
H           2.84116         0.13274        -2.50161
H           2.56008        -0.53079         2.11992
H           2.57012         1.23397         1.87653
H           4.47540        -0.30640         3.49731
H           4.45415         1.45287         3.20694
H           6.72695        -0.48065         2.44930
H           6.43185         2.60768         2.09406
H           7.36257         1.50037         1.06207
H           8.40371         2.64966         3.53351
H           9.10452        -0.17716         2.51769
H           9.98511         0.72742         3.75830
H           9.95029         1.31536         2.08753
H           6.46020         1.70717         4.65826
H           8.04090        -0.66505         4.47902

