%chk=CCqCOrNCCqCrN1NCC1C.chk
%NProcShared=20
# opt freq b3lyp/6-31g(2df,p)

Title Card Required 

0  1
C           1.05586         0.01027         0.00891
C           2.58314         0.06101         0.05102
C           3.06382         1.21044         0.96521
O           2.58578         2.47253         0.51095
N           3.07284        -1.25707         0.49096
C           4.53703        -1.31109         0.44535
C           5.16645        -2.65152         0.88502
C           4.68665        -3.78945        -0.02703
N           6.64917        -2.67386         0.95096
N           7.34333        -1.84442        -0.02808
C           8.26867        -1.37318         1.02782
C           7.21091        -1.86881         2.06551
C           7.74978        -2.70502         3.20513
H           0.64400         0.96023        -0.34601
H           0.64075        -0.19171         1.00217
H           0.70529        -0.77308        -0.67269
H           2.92554         0.25409        -0.97502
H           4.15492         1.28977         0.97974
H           2.72861         1.05061         1.99445
H           2.94355         2.60831        -0.37692
H           2.68947        -1.96871        -0.13391
H           4.94124        -0.54766         1.11104
H           4.84083        -1.07595        -0.58067
H           4.79445        -2.88777         1.89250
H           4.98922        -3.62418        -1.06623
H           3.59419        -3.87744        -0.00837
H           5.07995        -4.75636         0.30266
H           6.78954        -1.06460        -0.38445
H           8.46838        -0.29736         1.03623
H           9.22045        -1.91552         1.02036
H           6.57287        -1.05407         2.43209
H           8.38480        -3.52364         2.85142
H           6.93248        -3.13138         3.79502
H           8.35146        -2.08099         3.87510

