%chk=CCqdCCCdCCCC1CO1rCO.chk
%NProcShared=20
# opt freq b3lyp/6-31g(2df,p)

Title Card Required 

0  1
C           1.00084        -0.08782         0.00109
C           2.50738        -0.04809         0.08216
C           3.14231         0.45207         1.16017
C           2.43459         1.02079         2.34581
C           3.38016         1.51836         3.37478
C           2.92923         2.06862         4.51288
C           3.89289         2.56255         5.52316
C           3.21626         3.15143         6.75235
C           4.21019         3.53138         7.80459
C           5.70476         3.51282         7.54915
O           4.95206         4.73022         7.54086
C           3.23369        -0.62138        -1.10966
O           4.64693        -0.54379        -0.96824
H           0.50963         0.33171         0.88540
H           0.65132        -1.12062        -0.08644
H           0.64694         0.49035        -0.85661
H           4.22834         0.43125         1.19984
H           1.80644         0.24422         2.79793
H           1.80545         1.85931         2.02304
H           4.45097         1.43883         3.20709
H           1.86387         2.15536         4.69797
H           4.52911         3.32313         5.05296
H           4.53018         1.72273         5.83106
H           2.53363         2.40341         7.17646
H           2.59799         4.01493         6.47578
H           3.82229         3.41800         8.80746
H           6.11190         3.19280         6.59731
H           6.35681         3.28959         8.38179
H           2.96066        -0.07647        -2.01836
H           2.97196        -1.67530        -1.23876
H           4.86418         0.39660        -0.85265

