%chk=CCqOCOrCqCCCCCqCrC1qCrCC1OOrOO.chk
%NProcShared=20
# opt freq b3lyp/6-31g(2df,p)

Title Card Required 

0  1
C           0.88053        -0.22858        -0.09082
C           2.41420        -0.07640        -0.08987
O           2.93815        -1.13159        -0.92230
C           2.62551        -2.42613        -0.43109
O           3.21988        -3.38637        -1.27104
C           2.96322         1.30581        -0.61884
C           2.52325         2.51979         0.21464
C           1.03527         2.69968         0.19938
C           0.55775         3.83877         1.03116
C          -0.96108         3.76207         1.01645
C          -1.52441         4.87027         1.87004
C          -1.07007         6.25049         1.39221
C          -3.03408         4.80898         2.01233
C          -3.42732         5.19186         3.41949
C          -3.88545         5.22369         0.82647
C          -3.87963         3.79083         1.24453
O          -5.06799         3.30457         1.89044
O          -4.83613         1.87827         2.05109
O           4.41047         1.28544        -0.57501
O           4.86348         2.49266        -1.27287
H           0.51724        -1.24330         0.03774
H           0.45766         0.12851        -1.03579
H           0.39946         0.21854         0.77225
H           2.80906        -0.21754         0.92463
H           1.55642        -2.63661        -0.47235
H           2.97419        -2.54938         0.59901
H           2.74467        -3.27222        -2.11109
H           2.67153         1.43229        -1.67039
H           2.98142         3.44441        -0.15886
H           2.88804         2.41082         1.24379
H           0.57980         1.88682         0.72153
H           0.63745         2.73639        -0.82086
H           0.94654         4.76975         0.62239
H           0.91532         3.72600         2.06345
H          -1.28974         2.79116         1.42373
H          -1.33662         3.80632        -0.01360
H          -1.09500         4.71391         2.86986
H          -1.33951         6.41253         0.34393
H           0.01296         6.37089         1.48169
H          -1.52187         7.04089         1.99441
H          -2.82394         6.04773         3.74828
H          -3.18958         4.36311         4.09653
H          -4.47694         5.46409         3.53048
H          -3.39949         5.44308        -0.12211
H          -4.78370         5.80851         0.98360
H          -3.42053         3.11250         0.52556
H          -5.74593         1.64644         2.26099
H           5.80952         2.38004        -1.08488

