%chk=CdCCCqCrCCCqCrCOCCO.chk
%NProcShared=20
# opt freq b3lyp/6-31g(2df,p)

Title Card Required 

0  1
C           0.92436        -0.02788         0.10644
C           2.26370        -0.04449         0.13652
C           3.07445         0.89299         0.97910
C           4.58582         0.72289         0.74381
C           4.96297         1.00101        -0.71502
C           5.34370         1.66197         1.68795
C           6.85575         1.49377         1.56898
C           7.62532         2.42808         2.49971
C           7.27653         2.17261         3.96568
C           9.12002         2.22771         2.25340
O           9.85179         3.12083         3.08388
C          11.24893         2.93316         2.91253
C          12.00180         3.87969         3.83296
O          13.40516         3.71388         3.67436
H           0.38606        -0.71127        -0.53929
H           0.35793         0.66116         0.72098
H           2.78453        -0.76215        -0.49095
H           2.84655         0.70827         2.03742
H           2.78956         1.93063         0.76027
H           4.86402        -0.31081         0.99299
H           4.73338         2.03849        -0.97790
H           4.43297         0.34483        -1.40793
H           6.02575         0.82499        -0.89813
H           5.02131         1.44108         2.71130
H           5.07383         2.70649         1.48689
H           7.18055         1.71267         0.54621
H           7.12509         0.44867         1.76992
H           7.36785         3.46911         2.26273
H           7.50080         1.13594         4.23801
H           6.21717         2.35538         4.16486
H           7.83703         2.83650         4.62837
H           9.36393         2.43055         1.20290
H           9.40421         1.19293         2.48262
H          11.52782         3.12182         1.86954
H          11.51671         1.89622         3.14910
H          11.73409         3.70077         4.88011
H          11.73989         4.91872         3.60800
H          13.61444         2.79207         3.90304

