%chk=CdCCCqOrCCqCrCCCCCC.chk
%NProcShared=20
# opt freq b3lyp/6-31g(2df,p)

Title Card Required 

0  1
C           0.95777        -0.08245         0.07124
C           2.29651        -0.10879         0.10742
C           3.07703         0.00637         1.38559
C           4.57333         0.03234         1.08484
O           4.79564         1.14043         0.21086
C           5.39976         0.16080         2.36939
C           6.91795         0.15444         2.10627
C           7.35553         1.31027         1.19743
C           7.66691         0.22400         3.44528
C           9.17325         0.17952         3.22610
C           9.92682         0.29089         4.53214
C          11.42069         0.28186         4.24396
C          12.20294         0.40002         5.53989
C          13.69208         0.37902         5.26270
H           0.43619        -0.14028        -0.87578
H           0.38173         0.00647         0.98330
H           2.85134        -0.17156        -0.82830
H           2.84041        -0.82715         2.05430
H           2.80192         0.94674         1.88124
H           4.87360        -0.88018         0.55458
H           4.66912         1.95734         0.72199
H           5.14734        -0.67160         3.04188
H           5.13054         1.08518         2.89687
H           7.17617        -0.79431         1.61691
H           7.06221         2.27040         1.63555
H           6.94316         1.22632         0.19392
H           8.42899         1.32466         1.01279
H           7.36826        -0.61359         4.08928
H           7.39570         1.14461         3.97804
H           9.50127         1.01698         2.60467
H           9.44342        -0.74296         2.69776
H           9.65552        -0.53774         5.19407
H           9.65094         1.22616         5.03467
H          11.67818         1.11355         3.57437
H          11.69114        -0.64363         3.72006
H          11.93831        -0.42818         6.20686
H          11.93456         1.33178         6.05117
H          13.97968        -0.55334         4.76641
H          14.24984         0.45971         6.19885
H          13.97757         1.21439         4.61532

