%chk=CdCCOCCCCCCCqCrCCCCC.chk
%NProcShared=20
# opt freq b3lyp/6-31g(2df,p)

Title Card Required 

0  1
C           0.94437         0.03420        -0.05508
C           2.28642         0.06718        -0.08581
C           3.03086         1.01105        -0.96640
O           4.42937         0.81597        -0.78427
C           5.14787         1.71471        -1.62368
C           6.63404         1.49982        -1.42638
C           7.41341         2.44798        -2.31936
C           8.90624         2.23450        -2.13685
C           9.65810         3.19720        -3.03134
C          11.16153         3.04408        -2.85789
C          11.92306         4.03894        -3.74115
C          11.54270         5.48542        -3.39731
C          13.42965         3.80950        -3.57205
C          14.23109         4.74073        -4.47145
C          15.72054         4.53652        -4.28478
C          16.48434         5.50832        -5.17476
C          17.97525         5.32191        -4.99229
H           0.41587        -0.65712         0.58991
H           0.35583         0.70091        -0.67714
H           2.86029        -0.60685         0.54304
H           2.77759         2.04389        -0.70215
H           2.77762         0.81881        -2.01506
H           4.88337         2.74759        -1.36697
H           4.88156         1.53059        -2.67142
H           6.89607         0.45978        -1.65426
H           6.89920         1.66037        -0.37431
H           7.15220         3.48734        -2.07911
H           7.14155         2.28733        -3.37049
H           9.17826         1.20211        -2.38123
H           9.18150         2.41348        -1.09032
H           9.33899         4.20874        -2.76363
H           9.38795         3.03785        -4.08250
H          11.45324         2.01704        -3.11499
H          11.43223         3.19443        -1.80493
H          11.65778         3.84577        -4.78946
H          11.79434         5.70956        -2.35539
H          10.47894         5.67879        -3.54705
H          12.04816         6.20813        -4.04024
H          13.67705         2.76740        -3.81494
H          13.71568         3.96467        -2.52378
H          14.01320         5.78613        -4.23495
H          13.94815         4.57650        -5.51829
H          15.98944         3.50233        -4.52640
H          15.98348         4.70964        -3.23377
H          16.20917         6.54130        -4.92757
H          16.21389         5.34528        -6.22474
H          18.26163         5.51031        -3.95273
H          18.52516         6.01392        -5.63467
H          18.26762         4.29940        -5.25022

