%chk=CdCCCCCC1CC2CCCCCC12.chk
%NProcShared=20
# opt freq b3lyp/6-31g(2df,p)

Title Card Required 

0  1
C           1.03944         0.06353         0.05339
C           2.36170         0.05228         0.03105
C           3.08856        -0.66099        -1.05597
C           4.57628        -0.58881        -0.87816
C           5.18487        -1.40383        -2.01469
C           6.62718        -1.47906        -1.71175
C           7.50758        -1.95155        -2.83959
C           7.55097        -1.12040        -4.15229
C           8.51289        -0.12606        -3.45751
C           7.88860         1.17267        -2.89127
C           8.84710         1.83322        -1.89323
C           9.77510         0.89134        -1.12148
C           9.04016        -0.16503        -0.31089
C           9.28401        -1.50885        -0.99992
C           8.94582        -1.45531        -2.52906
H           0.49379         0.57381         0.84152
H           0.46651        -0.44335        -0.72414
H           2.93886         0.55692         0.80937
H           2.83572        -0.22546        -2.02938
H           2.80088        -1.71850        -1.06198
H           4.88756        -0.98512         0.10010
H           4.92956         0.45517        -0.90645
H           5.00177        -0.90082        -2.96864
H           4.79215        -2.42011        -2.06397
H           6.78290        -2.04308        -0.78901
H           6.88225        -0.46672        -1.46697
H           7.41103        -3.02848        -3.01090
H           6.60152        -0.73365        -4.52701
H           8.04093        -1.64965        -4.98232
H           9.25702         0.21976        -4.19216
H           6.89531         1.04675        -2.45023
H           7.65990         1.89083        -3.69424
H           8.27496         2.44557        -1.18583
H           9.48802         2.51373        -2.46187
H          10.43345         1.45297        -0.45897
H          10.45177         0.41240        -1.84229
H           7.99049         0.10743        -0.17770
H           9.39455        -0.20418         0.72546
H           8.74436        -2.32453        -0.49464
H          10.33506        -1.78251        -0.84400
H           9.68439        -2.10418        -3.03188

