%chk=CdCqCrOCCCCCCCCO.chk
%NProcShared=20
# opt freq b3lyp/6-31g(2df,p)

Title Card Required 

0  1
C           0.98363        -0.04550        -0.05011
C           2.32303        -0.05439        -0.06327
C           3.08474        -0.77354        -1.13895
O           2.98451         0.62182         0.94839
C           4.41091         0.60518         0.92272
C           4.92491         1.40304         2.11593
C           6.44867         1.41864         2.13926
C           6.96942         2.21437         3.32918
C           8.49345         2.22153         3.33978
C           9.01459         3.01679         4.52910
C          10.53661         3.02755         4.54640
C          11.05472         3.82005         5.73505
O          12.47398         3.82536         5.72769
H           0.40362        -0.55442        -0.81149
H           0.44027         0.47630         0.73015
H           2.40990        -1.25347        -1.85669
H           3.71228        -1.56235        -0.71323
H           3.71223        -0.07869        -1.70525
H           4.77563         1.06568        -0.00246
H           4.77596        -0.42565         0.99470
H           4.53482         0.97100         3.04602
H           4.53481         2.42762         2.07203
H           6.82946         1.85821         1.20912
H           6.82945         0.39112         2.19020
H           6.59501         1.77627         4.26246
H           6.59495         3.24420         3.28089
H           8.86928         2.65985         2.40709
H           8.86919         1.19209         3.38854
H           8.63627         2.57786         5.46052
H           8.63671         4.04538         4.47931
H          10.92650         3.45964         3.61623
H          10.92359         2.00160         4.58697
H          10.71023         3.38547         6.67905
H          10.70834         4.85718         5.68789
H          12.76836         2.90022         5.78156

