%chk=CNC1dCqCrC2dCdCCdCCqdCC3CCdCC3dN2rC1.chk
%NProcShared=20
# opt freq b3lyp/6-31g(2df,p)

Title Card Required 

0  1
C           1.20916         0.01040         0.00142
N           2.91345         0.05239         0.01402
C           4.28284         0.66564        -0.88820
C           5.83716         0.25991        -1.26199
C           5.68225        -0.46545         0.23055
C           7.31890         1.06381        -2.41610
C           7.37466         2.46698        -1.77311
C           8.07441         2.72810        -0.65519
C           8.26533         1.21239         0.38726
C           9.35355         1.32716        -0.37154
C           7.99288         0.52766        -0.83012
C           9.63000        -0.31059        -0.62580
C          11.11329        -1.33971        -0.55496
C          12.37198        -2.75822        -0.82576
C          12.86412        -2.50035        -2.16956
C          12.29287        -1.31926        -2.75572
C          10.56035        -0.48561        -2.20970
N           9.09817         0.34874        -2.72562
C           5.99393         1.23543        -0.91796
H           0.77128        -0.87062         0.59677
H           0.72828        -0.11902        -0.97913
H           0.72729         0.86804         0.51363
H           3.05711        -0.81143         0.53701
H           4.72131        -0.86193         0.56952
H           6.03413         0.23715         1.01252
H           6.08981        -1.12995        -0.46265
H           8.84751         3.04223        -1.48606
H           7.96280        -0.36147         0.45503
H          10.23537         1.86799        -1.06491
H          10.89566         0.35725        -0.53954
H          12.14971        -1.17629         0.32523
H          11.76257        -3.61460        -0.77125
H          13.30303        -3.38247        -0.14814
H          13.35847        -3.44522        -2.71450
H          13.50162        -1.09403        -3.03861
H           4.92163         1.40834        -2.07809
H           5.04487         2.29414        -0.89603

