%chk=CNdCCqCNCCCdOrOOC.chk
%NProcShared=20
# opt freq b3lyp/6-31g(2df,p)

Title Card Required 

0  1
C           0.95262        -0.01605        -0.02565
N           2.40371        -0.08463        -0.02397
C           3.03406         1.02919         0.14659
C           4.55942         1.05725         0.13315
C           5.08414         0.52238        -1.21424
N           4.67447        -0.86187        -1.45784
C           5.10807        -1.34869        -2.75223
C           4.58830        -2.76595        -2.94701
C           5.07146        -3.31073        -4.25945
O           4.78516        -4.43711        -4.66156
O           4.97191         2.41374         0.32069
O           6.43206         2.37284         0.39574
C           6.85176         3.71880         0.55368
H           0.56058        -1.02640        -0.18768
H           0.58231         0.61281        -0.84087
H           0.56550         0.34041         0.93263
H           2.50937         1.98880         0.29696
H           4.92056         0.44933         0.97198
H           6.17903         0.56887        -1.22696
H           4.73251         1.18065        -2.01969
H           3.65029        -0.92008        -1.35455
H           6.20364        -1.34673        -2.79065
H           4.74351        -0.69981        -3.55774
H           3.49253        -2.77715        -2.95033
H           4.95070        -3.42167        -2.14744
H           5.70725        -2.64721        -4.86858
H           7.94489         3.74161         0.54796
H           6.49149         4.10352         1.51053
H           6.48166         4.33582        -0.27035

