%chk=CNqNrCdC1CCqSrCC1CCO.chk
%NProcShared=20
# opt freq b3lyp/6-31g(2df,p)

Title Card Required 

0  1
C           1.06730        -0.03938        -0.08746
N           2.53037        -0.15766        -0.08662
N           3.10561        -1.36073         0.31661
C           3.35922         0.91710        -0.38225
C           4.69169         1.08378        -0.39679
C           5.69988         0.01018        -0.07403
C           6.76892         0.74629         0.70921
S           6.32717         0.94349         2.48356
C           6.87494         2.08902        -0.00319
C           5.49336         2.36290        -0.66683
C           4.93964         3.70277        -0.16504
C           3.68688         4.18428        -0.88014
O           3.28128         5.43130        -0.33519
H           0.59269        -0.99193         0.17171
H           0.70840         0.25504        -1.07899
H           0.73796         0.70675         0.64464
H           2.41855        -2.09864         0.45269
H           3.55989        -1.22674         1.22167
H           2.70870         1.72903        -0.66504
H           6.10046        -0.36756        -1.02280
H           5.35428        -0.84596         0.49386
H           7.71087         0.19207         0.67914
H           5.18742         1.62953         2.30744
H           7.63585         2.00740        -0.79123
H           7.21241         2.89239         0.66223
H           5.66716         2.44150        -1.74977
H           5.70821         4.47945        -0.29676
H           4.76221         3.66001         0.91644
H           2.83509         3.53235        -0.74008
H           3.85614         4.28914        -1.95586
H           2.98567         5.24497         0.57425

