%chk=COC1qC2CqCrC2OrCCCO1.chk
%NProcShared=20
# opt freq b3lyp/6-31g(2df,p)

Title Card Required 

0  1
C           1.01145        -0.03922        -0.04837
O           2.42895        -0.11413        -0.05135
C           2.95872        -1.11371         0.82624
C           2.97947        -0.59475         2.25325
C           4.12987        -0.61935         3.27405
C           5.51648        -1.14060         3.10689
C           3.70389         0.68158         2.63625
O           3.00041         1.57804         3.52208
C           4.29819        -1.52319         0.23648
C           4.42803        -2.95964         0.68153
C           3.01210        -3.44132         0.50428
O           2.16861        -2.32514         0.81126
H           0.70894         0.76424        -0.72567
H           0.63027         0.18726         0.95026
H           0.57304        -0.96956        -0.42278
H           1.98199        -0.70528         2.67240
H           3.82548        -0.79858         4.30035
H           5.97353        -0.98665         2.13259
H           5.53076        -2.21225         3.32916
H           6.19690        -0.67047         3.82012
H           4.33155         1.14192         1.88434
H           2.47221         1.11482         4.18761
H           5.10811        -0.83842         0.47816
H           4.25987        -1.50538        -0.86046
H           4.66251        -3.06360         1.73936
H           5.17210        -3.53313         0.12661
H           2.76529        -4.26881         1.17552
H           2.82669        -3.75431        -0.52761

