%chk=COC1CCCqCrCCCCNC1.chk
%NProcShared=20
# opt freq b3lyp/6-31g(2df,p)

Title Card Required 

0  1
C           1.03918        -0.14375         0.58803
O           2.38272         0.17170         0.33276
C           2.71232         0.99513        -0.78670
C           3.73145         0.27260        -1.71977
C           3.92120        -1.24236        -1.51744
C           3.13498        -2.16269        -2.48258
C           3.54930        -1.92449        -3.94086
C           1.60229        -2.07699        -2.28797
C           0.98928        -0.94118        -3.11046
C          -0.42062        -0.48709        -2.77928
C          -0.51835         1.04477        -2.61386
N           0.19259         1.68028        -1.51633
C           1.64003         1.86718        -1.57382
H           0.97877        -0.98546         1.28083
H           0.52674        -0.46244        -0.31159
H           0.54191         0.71105         1.04697
H           3.33742         1.76343        -0.30477
H           4.71407         0.74173        -1.56010
H           3.53921         0.51627        -2.76647
H           3.71324        -1.53811        -0.48270
H           4.98992        -1.46517        -1.64928
H           3.42767        -3.19066        -2.22648
H           3.33776        -0.90489        -4.27875
H           3.00498        -2.59990        -4.60739
H           4.62155        -2.08341        -4.07689
H           1.40006        -2.00057        -1.21858
H           1.13731        -3.02291        -2.59006
H           1.01497        -1.22136        -4.16832
H           1.63425        -0.08095        -3.04791
H          -0.84406        -1.01265        -1.91764
H          -1.05764        -0.75641        -3.63319
H          -1.58111         1.26766        -2.45660
H          -0.25634         1.54366        -3.55574
H          -0.16601         1.39989        -0.60851
H           1.78996         2.88617        -1.19006
H           1.95274         1.97698        -2.62190

