%chk=COCCdNCCqCCqCrdOrCqNrCO.chk
%NProcShared=20
# opt freq b3lyp/6-31g(2df,p)

Title Card Required 

0  1
C           0.95193         0.04577        -0.12149
O           2.37347         0.08310        -0.19842
C           2.96020        -0.33833         1.01724
C           4.48322        -0.32106         0.92577
N           5.15410        -0.78148         1.91804
C           6.59133        -0.71375         2.04768
C           7.01062        -1.12124         3.50829
C           6.40922        -2.48533         3.92231
C           4.89986        -2.59459         4.10745
C           4.01723        -1.37565         4.16480
O           4.38961        -3.71221         4.25029
C           8.56797        -1.12694         3.63227
N           9.11927         0.20809         3.34297
C           9.08872        -1.57290         5.02771
O          10.51455        -1.60180         5.08553
H           0.55465         0.34984        -1.09235
H           0.58775         0.74169         0.64160
H           0.59978        -0.96741         0.09980
H           2.62452        -1.35353         1.26362
H           2.65715         0.33683         1.83036
H           4.93636         0.12424         0.02937
H           6.91579         0.31269         1.85058
H           7.06966        -1.38609         1.33000
H           6.64089        -0.37050         4.21981
H           6.79654        -2.79390         4.89951
H           6.72286        -3.24936         3.19889
H           4.56955        -0.43644         4.11520
H           3.41218        -1.33680         5.06456
H           3.34202        -1.45382         3.31261
H           8.98324        -1.81290         2.88388
H           8.77251         0.88091         4.02770
H           8.83457         0.54698         2.42872
H           8.76587        -2.58488         5.27779
H           8.73350        -0.89640         5.81273
H          10.82296        -2.09018         4.30366

