%chk=COCCONCCCCqCrqCrCqCrCNON.chk
%NProcShared=20
# opt freq b3lyp/6-31g(2df,p)

Title Card Required 

0  1
C           0.97572         0.08071        -0.01351
O           2.39487         0.09477        -0.02028
C           2.88591         1.21802        -0.74413
C           4.39797         1.19417        -0.73639
O           4.85179         2.27421        -1.54811
N           6.29471         2.31835        -1.44644
C           6.68717         3.49762        -2.20945
C           8.20238         3.47601        -2.21505
C           8.79063         4.66240        -2.96739
C          10.34877         4.69288        -2.96205
C          10.86687         4.71488        -1.50568
C          10.86771         3.40508        -3.65081
C          10.84707         5.96453        -3.75161
C          10.30070         7.28208        -3.15570
C          12.39283         6.01956        -3.85015
N          12.83204         7.15954        -4.64409
O          14.25755         7.18425        -4.50314
N          14.73602         8.24414        -5.34241
H           0.64403        -0.79449         0.54913
H           0.59298         0.01057        -1.03616
H           0.59151         0.98222         0.47278
H           2.52951         2.15048        -0.29008
H           2.52304         1.18990        -1.77891
H           4.76401         0.24746        -1.15319
H           4.78053         1.28299         0.28846
H           6.58274         1.49368        -1.97780
H           6.31600         4.41230        -1.73426
H           6.30120         3.45056        -3.23431
H           8.53772         2.53655        -2.66567
H           8.54546         3.48569        -1.17522
H           8.38618         5.56580        -2.49998
H           8.42598         4.65547        -4.00376
H          10.57736         3.81884        -0.94983
H          10.47586         5.57714        -0.95611
H          11.95805         4.74642        -1.45914
H          10.54506         2.49861        -3.13024
H          11.95860         3.34762        -3.66328
H          10.50847         3.34279        -4.68457
H          10.45333         5.89171        -4.77659
H          10.66072         7.43898        -2.13467
H           9.20902         7.31036        -3.14677
H          10.59955         8.15296        -3.74553
H          12.77966         5.11444        -4.32810
H          12.83161         6.08318        -2.84829
H          12.58785         8.01266        -4.14823
H          15.73604         8.14165        -5.22027
H          14.46442         9.05612        -4.78983

