%chk=OdC1CCCCNdCdC2CdC12.chk
%NProcShared=20
# opt freq b3lyp/6-31g(2df,p)

Title Card Required 

0  1
O           5.33150         0.34772         0.54645
C           5.79071        -0.12043        -0.49373
C           3.97639        -0.51490        -1.14853
C           5.18709        -0.72539        -1.51023
C           5.19500        -1.40698        -2.77024
C           6.58758        -1.32609        -2.68550
N           7.39402        -2.00821        -3.65124
C           8.36822        -2.01920        -3.00909
C           8.79095        -1.36181        -1.92270
C           8.95850        -0.02395        -2.19619
C           7.82415        -0.07529        -1.20820
H           3.34776         0.01747        -1.99788
H           3.36666        -1.54783        -1.16523
H           5.10428        -1.61682        -0.39620
H           4.97571         0.71293        -1.59987
H           4.83991        -0.64888        -3.45189
H           4.84930        -2.38584        -2.50856
H           6.82426        -1.87810        -1.55565
H           6.65121        -0.08310        -2.74469
H           9.61391        -0.18259        -3.36031

