%chk=OdCqSrCSC1SC1C1CCC1.chk
%NProcShared=20
# opt freq b3lyp/6-31g(2df,p)

Title Card Required 

0  1
O           0.96487        -0.00305        -0.07170
C           2.19779         0.00313        -0.07766
S           3.04941        -1.47083        -0.57946
C           2.99331         1.23633         0.36037
S           4.76301         1.04572         0.13395
C           5.55612         2.41626         0.77858
S           6.84282         2.78699        -0.35098
C           5.62476         3.82423         0.26618
C           6.13356         4.97703         1.12641
C           5.65947         5.03459         2.60709
C           7.04121         5.59446         2.98706
C           7.58923         4.95994         1.70364
H           1.98337        -2.21097        -0.88812
H           2.75803         1.44700         1.40998
H           2.66177         2.08773        -0.24402
H           5.82138         2.29469         1.82354
H           4.86566         4.17571        -0.42203
H           5.94257         5.92685         0.59956
H           5.46784         4.05433         3.05689
H           4.79798         5.67438         2.80857
H           7.46789         5.18692         3.90802
H           7.09994         6.68603         3.00987
H           8.00783         3.96338         1.88912
H           8.33047         5.54131         1.14698

