%chk=[c]1c2cccc1-c1ccccc1CdN2.chk
%NProcShared=20
# opt freq b3lyp/6-31g(2df,p)

Title Card Required 

0  2
C          -2.21888        -0.77510        -0.55371
C          -2.43909         0.10728         0.46553
C          -2.50681        -0.39362         1.72139
C          -2.12859        -1.77826         1.68535
C          -1.51682        -2.49791         0.52255
C          -1.10460        -1.45965        -0.28024
C           0.20430        -0.71406        -0.18255
C           1.44140        -1.36087         0.02711
C           2.61842        -0.62693         0.23840
C           2.58947         0.76543         0.21686
C           1.39468         1.43309        -0.03704
C           0.21506         0.70908        -0.24625
C          -1.01321         1.56795        -0.41711
N          -2.21189         1.40545         0.08353
H          -2.86436         0.25349         2.54168
H          -2.53081        -2.26344         2.59557
H          -1.04417        -2.98690        -0.39384
H           1.50259        -2.44625         0.05403
H           3.55652        -1.14360         0.43635
H           3.49768         1.33350         0.39938
H           1.37423         2.52010        -0.02504
H          -0.90079         2.45232        -1.04864

