%chk=C1dCCdc2c3cccc2dCCdCC3dC1.chk
%NProcShared=20
# opt freq b3lyp/6-31g(2df,p)

Title Card Required 

0  1
C           1.26656         0.21320         0.34895
C           2.21521        -0.25172        -0.51369
C           3.03902        -0.91479         0.33965
C           4.05546        -0.50978         1.24497
C           4.53680         0.60399         1.94937
C           5.88284         0.23071         2.46459
C           6.62857        -0.89503         1.69765
C           5.75926        -1.70882         1.14624
C           4.31272        -1.73204         1.90029
C           3.54353        -1.86277         3.11705
C           3.22484        -0.73863         4.18146
C           2.66790         0.42886         3.72697
C           3.04128         1.19836         2.37042
C           1.83228         1.23393         1.44847
H           0.51619        -0.48732         0.75711
H           2.85579         0.36270        -1.15135
H           2.39932        -1.48730         1.02763
H           6.52718         0.20521         3.38824
H           7.63591        -0.79350         1.21588
H           5.74712        -1.16351         0.06161
H           2.37694        -1.95518         3.00784
H           2.97902        -1.09093         5.21986
H           1.91294        -0.02533         3.09170
H           1.58415         1.87800         0.56934

