%chk=CC1CCOC1dC1CCdC1N.chk
%NProcShared=20
# opt freq b3lyp/6-31g(2df,p)

Title Card Required 

0  1
C           0.92575         0.29738         0.03981
C           2.42722         0.13402        -0.03409
C           3.05989         1.20226         0.83646
C           4.38405         0.58292         1.19076
O           4.13490        -0.83567         1.33129
C           2.98739        -1.12267         0.57095
C           2.48957        -2.37984         0.48575
C           2.91635        -3.68407         1.14099
C           1.73341        -4.25453         0.41441
C           1.37618        -3.08566        -0.16926
N           0.43782        -2.74316        -0.99050
H           0.61258         1.25342        -0.38195
H           0.55832         0.20272         1.06677
H           0.41527        -0.44764        -0.53982
H           2.79632         0.21814        -1.06398
H           2.47646         1.35890         1.75432
H           3.14278         2.17162         0.33349
H           4.77586         1.00014         2.12654
H           5.12894         0.75584         0.40382
H           2.83986        -3.74119         2.23295
H           3.88434        -4.10285         0.84591
H           1.31048        -5.24968         0.33962
H          -0.30242        -3.38488        -1.26349
H           0.38231        -1.88215        -1.51885

