%chk=CC1dCOOCCCqCrCCqCrCCdC1N.chk
%NProcShared=20
# opt freq b3lyp/6-31g(2df,p)

Title Card Required 

0  1
C           2.38637         0.05311        -0.02100
C           4.57378         0.06050        -0.28524
C           3.55305        -0.27944        -1.15450
O           4.77829        -0.42606        -1.42796
O           5.20309        -0.75959        -2.58729
C           6.53291        -0.70348        -2.33801
C           7.19119        -1.05475        -3.48302
C           8.52451        -1.08706        -3.29925
C           9.09986        -2.10362        -1.71675
C           9.42188        -1.47295        -4.32722
C          10.58340        -1.61669        -3.22277
C          11.70085        -2.29542        -2.80192
C          10.15619        -0.42415        -3.45588
C           8.52822        -0.09067        -1.68662
C           6.79182         0.05164        -0.61675
N           5.43144         0.33743         0.80886
H           1.14686        -0.21654        -0.86370
H           1.19941         0.96720         0.22928
H           1.20431        -0.56886         0.70831
H           2.85916        -0.57588        -1.98120
H           6.91720        -1.54518        -1.41310
H           6.91513         0.59481        -2.18013
H           7.13211        -0.22159        -4.09932
H           7.12084        -2.07189        -3.52825
H           8.92634         0.42872        -3.22433
H           9.02908        -3.07628        -2.08417
H           8.72788        -1.72750        -0.75473
H          10.08840        -1.82278        -1.30687
H           9.37449        -0.58489        -5.13385
H           9.38446        -2.44658        -4.57862
H          11.32182        -0.42369        -3.44001
H          11.36762        -3.25930        -3.03265
H          11.49083        -1.95328        -1.83038
H          12.70085        -2.03797        -2.63218
H          11.01507        -0.63211        -4.91417
H          10.99808        -1.55295        -4.47212
H          10.09629        -0.22489        -1.87639
H           4.61540         0.63467         1.86409
H           4.03337         0.41679         1.14508

