%chk=CC1dCCCCCCCCc2ccccc2CdC1C.chk
%NProcShared=20
# opt freq b3lyp/6-31g(2df,p)

Title Card Required 

0  1
C           1.97333         0.01139        -0.34350
C           3.98645         0.32650        -1.17831
C           3.29358         1.31692        -0.59638
C           4.72678         1.16173        -0.64219
C           5.14185         2.34632        -1.42718
C           6.75104         2.41782        -1.26458
C           7.18138         3.48080        -2.16984
C           8.71746         3.39983        -2.05648
C           9.15013         4.57441        -2.77522
C          10.69156         4.23997        -2.80987
C          10.38857         4.94080        -3.94058
C          11.09703         6.69365        -3.44959
C          11.17251         7.84015        -4.22879
C          11.13667         6.92943        -5.31735
C          10.35074         4.99844        -5.12509
C           9.22107         3.31957        -4.24788
C           7.60576         1.79499        -3.14795
C           6.06908         0.73317        -2.04203
C           4.81828        -0.66772        -0.39973
H           0.82674         0.76832        -0.59475
H           0.99516         0.04790         0.88581
H           0.88157        -0.94371        -0.44808
H           2.57182         1.76409        -1.26439
H           5.32072        -0.22279        -1.48785
H           5.08004         1.08736         0.44376
H           4.74295         3.15450        -0.98029
H           4.77887         2.07592        -2.48052
H           7.50487         1.40842        -1.53184
H           7.08164         2.22249        -0.30413
H           6.77993         4.32877        -1.79924
H           6.74443         3.32281        -3.25316
H           9.30437         2.41949        -2.32419
H           9.10113         3.37983        -1.10598
H           8.81472         5.51279        -2.56839
H           8.45664         4.68699        -3.89277
H          11.20443         3.44159        -3.38900
H          11.17811         4.54310        -1.97458
H          11.07901         7.00726        -2.35168
H          10.94426         8.92982        -3.92697
H          11.47928         8.28665        -6.09600
H          11.54303         5.67741        -6.08910
H           8.94372         2.08566        -3.85578
H           4.23633        -1.66646         0.73595
H           3.46708        -1.53480        -0.03791
H           3.60707        -0.84562         0.71190

