%chk=CCC1CqOCrN2CCCCC3qCC3rC12.chk
%NProcShared=20
# opt freq b3lyp/6-31g(2df,p)

Title Card Required 

0  1
C           1.78210        -0.25805        -1.15628
C           3.10994        -0.36713        -0.47302
C           3.05011        -0.39102         1.09334
C           3.51046         0.89453         1.84046
O           4.47552         1.65805         1.08551
C           5.65707         0.87532         0.79833
N           2.06988         1.29471         1.97684
C           1.59524         2.23276         0.97352
C           0.06210         2.45856         1.00391
C          -0.80751         1.28826         1.49395
C          -0.60622         0.04869         0.64161
C           0.44075        -0.84115         1.30774
C          -0.24067        -2.06237         1.95393
C           0.73471        -2.32859         0.85677
C           1.73409        -0.17515         1.88942
H           1.76013         0.12887        -2.17475
H           1.27187         0.47680        -0.61468
H           1.21647        -1.19430        -1.15319
H           3.65104         0.52248        -0.81838
H           3.63842        -1.24241        -0.83884
H           3.63570        -1.25277         1.45458
H           3.92687         0.72877         2.84538
H           6.31868         1.41329         0.11867
H           5.40891        -0.06956         0.30032
H           6.16917         0.60791         1.72587
H           1.95276         2.06317        -0.04414
H           2.04598         3.21744         1.17181
H          -0.26327         2.73862        -0.00861
H          -0.15845         3.32223         1.64146
H          -1.86523         1.56638         1.46073
H          -0.57904         1.07144         2.54376
H          -0.43216         0.37572        -0.38641
H          -1.53658        -0.50486         0.48673
H          -1.27355        -2.25766         1.68629
H           0.00029        -2.33095         2.96070
H           0.37383        -2.71949        -0.07700
H           1.70640        -2.74067         1.12046
H           1.82673        -0.60209         2.90800

