%chk=CCCCCCqNCCrCqCrCNNO.chk
%NProcShared=20
# opt freq b3lyp/6-31g(2df,p)

Title Card Required 

0  1
C           0.88519         0.13799         0.01186
C           2.38778         0.16119        -0.07884
C           2.83869        -0.30429        -1.46733
C           4.34573        -0.31275        -1.44941
C           5.01043        -0.95903        -2.64828
C           6.57120        -0.99217        -2.61008
N           7.13074        -1.84996        -1.52508
C           6.83943        -1.41649        -0.16380
C           7.40863        -2.29140         0.92934
C           7.10596        -1.48746        -4.01294
C           6.57255        -0.61387        -5.17210
C           8.65511        -1.51326        -4.05568
N           9.16544        -2.02495        -5.33712
N          10.58878        -1.99442        -5.31213
O          11.08048        -2.59334        -6.53761
H           0.56016         0.50450         0.98802
H           0.51760        -0.88446        -0.11866
H           0.45540         0.76934        -0.76932
H           2.80199        -0.49361         0.70274
H           2.77474         1.16717         0.12497
H           2.45392         0.33660        -2.26300
H           2.47835        -1.32721        -1.63949
H           4.48982        -0.91757        -0.58025
H           4.76712         0.67926        -1.25376
H           4.66552        -0.36955        -3.50050
H           4.63076        -1.97778        -2.79422
H           6.93876         0.03344        -2.46668
H           8.14508        -1.88382        -1.60217
H           5.80779        -1.59764         0.05327
H           7.08397        -0.35979        -0.00918
H           7.02890        -3.31345         0.81325
H           7.02552        -1.92300         1.89081
H           8.49540        -2.29495         0.95105
H           6.73994        -2.51177        -4.17398
H           6.90012         0.42466        -5.05629
H           5.48397        -0.62892        -5.24828
H           6.90919        -0.97138        -6.14906
H           9.04328        -2.16832        -3.27110
H           9.03513        -0.50053        -3.86874
H           8.81349        -1.43684        -6.08667
H          10.95813        -2.64786        -4.61344
H          10.77280        -1.95186        -7.18944

