%chk=CCCCqCdCqCrCrCCqCrCO.chk
%NProcShared=20
# opt freq b3lyp/6-31g(2df,p)

Title Card Required 

0  1
C           0.77509         0.15263        -0.04610
C           2.27310         0.21149        -0.06011
C           2.98605         1.39734        -0.69364
C           4.53382         1.19999        -0.70547
C           4.91579        -0.07343        -1.44609
C           4.91696        -1.35326        -0.98499
C           4.39396        -1.77744         0.35735
C           5.36928        -2.48355        -1.85912
C           5.18662         2.46748        -1.32833
C           6.73456         2.53102        -1.32259
C           7.40914         1.38833        -2.08580
C           7.19417         3.86463        -1.93421
O           8.61366         3.96415        -1.93536
H           0.49179        -0.80457         0.41440
H           0.38838         0.15540        -1.06663
H           0.34820         0.96259         0.54125
H           2.52480        -0.65907        -0.65918
H           2.60993         0.10447         0.97529
H           2.73246         2.31083        -0.14362
H           2.63255         1.52012        -1.72341
H           4.90260         1.13864         0.32784
H           5.22658         0.07075        -2.47763
H           4.29703        -0.92798         1.03280
H           5.02973        -2.49421         0.87321
H           3.41146        -2.25369         0.22470
H           5.94931        -2.13800        -2.72047
H           4.50461        -3.04592        -2.22581
H           6.00953        -3.16034        -1.28355
H           4.81779         3.34268        -0.77110
H           4.81890         2.59551        -2.35554
H           7.08395         2.48676        -0.28293
H           7.00261         1.31344        -3.10081
H           7.28358         0.43638        -1.56776
H           8.49026         1.51970        -2.16792
H           6.79982         4.71774        -1.37465
H           6.85281         3.95028        -2.97188
H           8.92172         3.76867        -1.03413

