%chk=CCCOCqCrCqCrCCPNNC.chk
%NProcShared=20
# opt freq b3lyp/6-31g(2df,p)

Title Card Required 

0  1
C           1.02035        -0.01587         0.02479
C           2.54133        -0.02323         0.05091
C           3.02115        -1.02207         1.09027
O           4.44367        -1.13164         1.07473
C           4.93800        -2.04592         2.07323
C           4.44334        -3.46670         1.76895
C           6.49480        -1.96980         2.09644
C           6.95922        -0.53236         2.37691
C           7.07521        -2.94920         3.14117
C           8.60437        -3.00549         3.21031
P           9.10382        -4.14923         4.58825
N          10.79850        -4.14410         4.37917
N          11.34055        -5.06842         5.34248
C          12.79886        -5.04391         5.30468
H           0.64589         0.68487        -0.72514
H           0.61712         0.27170         1.00164
H           0.63236        -1.01244        -0.21633
H           2.93047         0.97596         0.27365
H           2.93235        -0.29842        -0.93580
H           2.57519        -1.98491         0.83149
H           2.68310        -0.72671         2.09006
H           4.55811        -1.72575         3.05285
H           4.76479        -3.77330         0.76816
H           3.35291        -3.53454         1.79045
H           4.78310        -4.19953         2.50130
H           6.86872        -2.24249         1.10061
H           6.63652        -0.20328         3.37061
H           6.56248         0.17090         1.63859
H           8.04914        -0.44746         2.33053
H           6.73607        -3.96604         2.91648
H           6.66039        -2.69386         4.12600
H           9.02456        -2.02055         3.42589
H           9.00763        -3.35090         2.25174
H           8.78019        -5.37385         3.95688
H          11.16389        -3.20148         4.54389
H          11.01573        -6.01233         5.13608
H          13.18805        -4.05317         5.55923
H          13.18764        -5.34680         4.32768
H          13.18327        -5.74528         6.05339

