%chk=CCCOC1dCCCqCrdNCSNdC1.chk
%NProcShared=20
# opt freq b3lyp/6-31g(2df,p)

Title Card Required 

0  1
C           1.11175        -0.16455        -0.02465
C           2.67666        -0.28470        -0.01917
C           3.20258        -1.86837         0.05306
O           4.63611        -2.26621         0.07120
C           5.43217        -3.60233         0.13213
C           6.46414        -2.72203         0.09199
C           7.68307        -3.32897         0.11967
C           9.00413        -2.95158         0.10246
C           9.56304        -1.69630         0.04521
N           9.63162        -4.01662         0.15103
C          10.82216        -4.58028         0.17673
S           9.68497        -6.24203         0.25252
N           7.77239        -5.87299         0.23569
C           6.53553        -5.18549         0.20433
H           0.75252         0.87997        -0.07228
H           0.67181        -0.59193         0.88314
H           0.67181        -0.67278        -0.88977
H           3.02329         0.32568         0.83062
H           3.02329         0.24580        -0.92098
H           2.76078        -2.31340        -0.83548
H           2.76078        -2.23068         0.97841
H           6.53678        -1.62922         0.04215
H           7.61119        -3.85223        -0.86898
H           7.61119        -3.76007         1.15184
H           8.69160        -1.05833         0.01611
H          10.11062        -1.80751        -0.88910
H          10.11062        -1.72201         0.98576
H          11.36653        -4.17407         1.05854
H          11.36653        -4.25602        -0.73839
H           5.79971        -6.00518         0.24172

