%chk=CCCqdCCdCCCOCrCCCOOC.chk
%NProcShared=20
# opt freq b3lyp/6-31g(2df,p)

Title Card Required 

0  1
C           1.15006         0.01027         0.48227
C           2.62003         0.05948         0.10446
C           2.95375         0.25304        -1.38169
C           2.07514         0.38662        -2.40726
C           0.64953         0.38045        -2.35990
C          -0.21804         0.51151        -3.36615
C          -1.67358         0.46276        -2.99182
C          -2.48888         0.62576        -4.24332
O          -3.87457         0.58592        -3.93742
C          -4.61097         0.74279        -5.14184
C           4.46853         0.28730        -1.64473
C           4.84661         0.47882        -3.11511
C           6.33510         0.51316        -3.37882
O           6.48801         0.69642        -4.78586
O           7.92035         0.72710        -5.02142
C           8.05434         0.90968        -6.42317
H           0.94646        -0.12771         1.54164
H           0.68170        -0.84589        -0.02194
H           0.68170         0.96702         0.21419
H           3.07645        -0.87626         0.44924
H           3.07645         0.87569         0.67743
H           2.43893         0.51882        -3.42226
H           0.12348         0.26074        -1.44079
H           0.10745         0.64466        -4.38839
H          -1.92234         1.25372        -2.26880
H          -1.92234        -0.48701        -2.49552
H          -2.24243        -0.18673        -4.93619
H          -2.24243         1.58862        -4.70496
H          -5.67542         0.71251        -4.90935
H          -4.36880        -0.07078        -5.83314
H          -4.36880         1.70629        -5.60168
H           4.91519        -0.64868        -1.28313
H           4.91519         1.09944        -1.05544
H           4.41594         1.41644        -3.49201
H           4.41594        -0.33099        -3.71961
H           6.80475        -0.42959        -3.08216
H           6.80475         1.34847        -2.85057
H           9.11871         0.94106        -6.66412
H           7.59021         1.85315        -6.72625
H           7.59021         0.07531        -6.95781

