%chk=CCCqCOrCCSCCNdCqOrCO.chk
%NProcShared=20
# opt freq b3lyp/6-31g(2df,p)

Title Card Required 

0  1
C           0.94731         0.04315        -0.01309
C           2.46450        -0.07441        -0.07272
C           2.97309        -1.52950        -0.23111
C           2.47041        -2.18559        -1.53134
O           1.06281        -2.34567        -1.58182
C           4.52172        -1.54308        -0.19251
C           5.12460        -2.95534        -0.28398
S           6.93750        -2.82133        -0.25045
C           7.42304        -4.57940        -0.43252
C           8.95691        -4.61827        -0.44063
N           9.43363        -5.99492        -0.54498
C          10.70238        -6.22275        -0.58184
O          11.65610        -5.27168        -0.54715
C          11.26470        -7.63321        -0.70195
O          12.67890        -7.72757        -0.71836
H           0.64143         1.07648         0.16843
H           0.54209        -0.58749         0.78465
H           0.48281        -0.24351        -0.95869
H           2.87369         0.35670         0.85082
H           2.83936         0.54454        -0.89724
H           2.59941        -2.10161         0.62876
H           2.87288        -3.19169        -1.64677
H           2.78426        -1.59289        -2.39693
H           0.76483        -2.68766        -0.72260
H           4.85770        -1.06535         0.73873
H           4.90053        -0.92352        -1.01734
H           4.85007        -3.44070        -1.22288
H           4.77098        -3.56899         0.55064
H           7.02540        -4.99811        -1.36442
H           7.02906        -5.16597         0.40444
H           9.33291        -4.17476         0.48995
H           9.32848        -4.03322        -1.29199
H          11.29280        -4.38443        -0.41660
H          10.88375        -8.07825        -1.62562
H          10.89892        -8.22001         0.14585
H          12.98582        -7.09617        -1.39298

