%chk=CCNCqCOrCCCCCCCCqCrOO.chk
%NProcShared=20
# opt freq b3lyp/6-31g(2df,p)

Title Card Required 

0  1
C           0.84346        -0.09617        -0.00973
C           2.35771        -0.05274         0.03720
N           2.94559        -1.36961        -0.19706
C           4.42419        -1.35154        -0.14552
C           4.99895        -0.89119         1.22774
O           4.76865         0.48195         1.52877
C           4.91728        -2.77651        -0.48017
C           6.44141        -2.85126        -0.53155
C           6.93151        -4.25522        -0.82670
C           8.45197        -4.26110        -0.81779
C           8.96988        -5.65957        -1.10386
C          10.48706        -5.64659        -1.09159
C          11.05443        -7.03560        -1.34813
C          12.58489        -7.04668        -1.31518
C          13.12568        -6.59712         0.04097
O          13.00047        -8.39232        -1.57791
O          14.44163        -8.34395        -1.78157
H           0.45075         0.90568         0.19616
H           0.45367        -0.77012         0.76030
H           0.47370        -0.41833        -0.98613
H           2.60071         0.30630         1.03710
H           2.73145         0.66704        -0.70002
H           2.63760        -1.72159        -1.10450
H           4.78173        -0.67147        -0.93031
H           6.08406        -0.98533         1.25185
H           4.59383        -1.50723         2.03820
H           4.87726         0.98320         0.70172
H           4.51873        -3.09696        -1.45282
H           4.54131        -3.49110         0.26420
H           6.87759        -2.56543         0.42898
H           6.82146        -2.14959        -1.28389
H           6.55562        -4.59581        -1.79701
H           6.55774        -4.94669        -0.06153
H           8.82255        -3.91910         0.15850
H           8.83565        -3.55600        -1.56606
H           8.59946        -6.00640        -2.07467
H           8.59758        -6.35263        -0.33943
H          10.80881        -5.27437        -0.11363
H          10.86448        -4.94598        -1.84634
H          10.70671        -7.40506        -2.32237
H          10.66140        -7.74710        -0.60964
H          12.96606        -6.39601        -2.11327
H          12.75663        -7.25305         0.83667
H          12.84572        -5.56683         0.27546
H          14.21756        -6.64423         0.06560
H          14.57784        -9.30197        -1.79225

