%chk=CCOCqCrdCCS[SH]qCrCqCrdO.chk
%NProcShared=20
# opt freq b3lyp/6-31g(2df,p)

Title Card Required 

0  1
C           0.94382         0.08277         0.01752
C           2.46213         0.08455         0.01843
O           2.94595         1.28838         0.61785
C           4.32238         1.45989         0.70308
C           5.27930         0.42130         0.18599
C           4.79445         2.58866         1.26569
C           6.26289         2.89103         1.41347
S           6.49781         4.49829         2.18259
S           8.56211         4.77436         2.36549
C           9.32045         4.86093         0.78164
C           8.80139         6.38359         3.12125
C           7.73377         7.33738         3.61383
O           9.99167         6.67720         3.25887
H           0.56226        -0.83603        -0.44004
H           0.55353         0.93935        -0.54069
H           0.55353         0.15344         1.03748
H           2.81026         0.01867        -1.01870
H           2.81028        -0.78275         0.59089
H           4.81267        -0.45905        -0.25216
H           5.91638         0.06594         1.00325
H           5.91628         0.85895        -0.59035
H           4.07193         3.31825         1.63013
H           6.74349         2.91346         0.43123
H           6.74572         2.13369         2.03819
H           9.14832         3.83338         3.12799
H           8.86518         5.66070         0.19628
H           9.17476         3.90042         0.28192
H          10.39163         5.04177         0.89999
H           6.74492         6.92364         3.41435
H           7.81125         8.29075         3.08864
H           7.82471         7.47244         4.69356

