%chk=CCqCrCqCrCN1CCN1CO.chk
%NProcShared=20
# opt freq b3lyp/6-31g(2df,p)

Title Card Required 

0  1
C           0.93792        -0.16664         0.13193
C           2.47522        -0.09323         0.07224
C           2.99528        -1.50496        -0.21426
C           2.97083         0.96482        -0.96792
C           2.30606         2.31557        -0.64874
C           4.53674         1.07994        -1.00805
N           5.06627         1.96403        -2.06813
C           4.75839         3.39624        -1.82604
C           6.20952         3.68143        -2.25146
N           6.48699         2.27930        -1.83110
C           7.35017         1.65090        -2.82566
O           7.78551         0.38626        -2.35203
H           0.60534        -0.92616         0.84536
H           0.52155        -0.40913        -0.85216
H           0.48706         0.76941         0.47148
H           2.83532         0.20426         1.06603
H           2.67558        -1.84805        -1.20391
H           2.60688        -2.21253         0.52753
H           4.08495        -1.56105        -0.16192
H           2.63174         0.64657        -1.96342
H           2.69125         2.72084         0.29347
H           1.22063         2.25944        -0.57773
H           2.44821         3.04153        -1.44459
H           4.94445         0.08535        -1.23001
H           4.91318         1.35270        -0.01337
H           4.57383         3.67652        -0.78078
H           4.00905         3.84098        -2.48502
H           6.70156         4.47289        -1.68276
H           6.28695         3.89216        -3.32713
H           8.25522         2.25638        -2.95611
H           6.88486         1.52730        -3.80845
H           8.00862         0.55381        -1.42598

