%chk=CCqCrC1dCCdCqNOCdNCCdNrCCCqOrC1.chk
%NProcShared=20
# opt freq b3lyp/6-31g(2df,p)

Title Card Required 

0  1
C           0.83918        -0.21899        -0.09621
C           2.36842        -0.16896        -0.10841
C           2.92826         0.66847        -1.27482
C           2.90310         0.43266         1.18685
C           3.81834        -0.27646         1.88664
C           4.79641         0.10322         2.88258
C           4.73890         1.02761         3.86649
N           5.78533         1.31266         4.73945
O           6.86232         0.42104         4.83378
C           7.78936         0.68060         5.79158
N           8.86902        -0.00334         5.81302
C           9.81563         0.29092         6.88702
C          11.02071        -0.60907         6.68777
N          12.04972        -0.62364         7.47543
C           3.51956         1.89465         3.98881
C           3.72055         3.12701         3.09202
C           3.18174         3.01839         1.67216
O           4.20996         3.13179         0.68976
C           2.30496         1.81381         1.42108
H           0.46115        -0.67300        -1.01315
H           0.37429         0.77019        -0.02704
H           0.48519        -0.79497         0.76590
H           2.73826        -1.19428        -0.23766
H           2.60007         1.71399        -1.24785
H           2.61514         0.26511        -2.23857
H           4.02577         0.69063        -1.24473
H           3.94843        -1.33058         1.61825
H           5.73100        -0.45061         2.77749
H           5.51285         1.81017         5.58715
H           7.50299         1.47465         6.50226
H           9.38474         0.06583         7.86817
H          10.15845         1.33057         6.85973
H          11.01748        -1.28982         5.81956
H          11.94663         0.04543         8.24369
H           3.36083         2.20804         5.02520
H           2.61920         1.30789         3.77985
H           4.77970         3.40767         3.04429
H           3.19984         3.96456         3.56716
H           2.54467         3.89699         1.49801
H           4.76031         2.33083         0.74741
H           1.72864         2.11367         0.54203
H           1.51922         1.72340         2.18052

