%chk=CCqCNNrOC1OC1N.chk
%NProcShared=20
# opt freq b3lyp/6-31g(2df,p)

Title Card Required 

0  1
C           0.97862        -0.11939        -0.07269
C           2.49956         0.01011        -0.11927
C           2.95361         1.32153         0.56547
N           2.54817         2.50262        -0.20319
N           3.06888         3.69514         0.40142
O           3.07403        -1.15782         0.48775
C           4.51124        -1.12074         0.67484
O           5.31621        -1.85683        -0.25580
C           5.37746        -0.44508        -0.38461
N           6.61376         0.22214         0.01013
H           0.49868         0.67220        -0.65695
H           0.61274        -0.05812         0.95777
H           0.65381        -1.08261        -0.47663
H           2.78834        -0.00086        -1.17619
H           4.04105         1.34930         0.66936
H           2.56957         1.35377         1.59273
H           1.52795         2.53748        -0.29031
H           4.09137         3.72449         0.36645
H           2.79998         3.79619         1.38279
H           4.85834        -1.14949         1.70339
H           4.90743        -0.01688        -1.26501
H           7.05618        -0.26977         0.78595
H           6.41910         1.16739         0.33273

