%chk=CdC1Cdc2ccc3ccc-3sc2dC1.chk
%NProcShared=20
# opt freq b3lyp/6-31g(2df,p)

Title Card Required 

0  1
C           1.20495         0.13083         0.12496
C           2.47217        -0.29475        -0.00987
C           2.51916        -1.59914        -0.42312
C           3.74619        -2.06501        -0.57071
C           5.47922        -1.66098        -0.44271
C           6.93062        -1.88376        -0.51329
C           7.65317        -3.05622        -0.88474
C           8.91192        -3.36972        -0.98407
C           8.47888        -4.63756        -1.38574
C           7.10765        -4.30064        -1.27900
S           5.33189        -3.63764        -1.06895
C           4.92227        -1.23643        -0.30821
C           3.91476        -0.05890         0.06485
H           0.44812        -0.63751        -0.11846
H           0.69680         1.04276         0.41388
H           1.75394        -2.29429        -0.64335
H           4.15742        -2.51394        -0.71294
H           7.60401        -1.09770        -0.26425
H           9.73600        -2.71269        -0.77591
H           9.30367        -5.34994        -1.61143
H           4.06146         0.99770         0.39960

