%chk=CdCCNCCqdOrCdCNSCCN.chk
%NProcShared=20
# opt freq b3lyp/6-31g(2df,p)

Title Card Required 

0  1
C           1.10213         0.01403        -0.05815
C           2.44288         0.05292        -0.05815
C           3.22170         1.33547        -0.11142
N           4.65770         1.08495        -0.08047
C           5.44426         2.33486        -0.13727
C           6.96291         2.03451        -0.13336
O           7.41525         0.88583        -0.14019
C           7.89811         3.21934        -0.16682
C           9.23685         3.07120        -0.16827
N          10.21668         4.05422        -0.21275
S          11.83014         3.61869        -0.19016
C          12.68429         5.24944        -0.24740
C          14.21885         5.04253        -0.24176
N          14.96643         6.30819        -0.27721
H           0.56746        -0.93027        -0.01403
H           0.50996         0.92334        -0.09438
H           2.99130        -0.88567        -0.00710
H           2.94099         1.94367         0.75659
H           2.94902         1.87736        -1.02446
H           4.93056         0.49141        -0.86537
H           5.20888         2.95170         0.73659
H           5.20381         2.88327        -1.05515
H           7.43528         4.19616        -0.20129
H           9.64513         2.05767        -0.13246
H           9.90204         5.02090        -0.22980
H          12.39485         5.85326         0.61984
H          12.39416         5.78916        -1.15571
H          14.52959         4.44132        -1.10460
H          14.52476         4.50400         0.66304
H          14.78414         6.79794        -1.15251
H          15.96844         6.10422        -0.28278

