%chk=CdCCdCC1dCqCrCC1OO.chk
%NProcShared=20
# opt freq b3lyp/6-31g(2df,p)

Title Card Required 

0  1
C           1.08261        -0.05176        -0.06638
C           2.42376        -0.07456        -0.04688
C           3.17697        -0.36182         1.14858
C           4.50173        -0.16842         1.25818
C           5.25881        -0.50357         2.49222
C           6.37883         0.01699         3.04138
C           7.24757         1.21461         2.72049
C           6.27390        -0.85124         4.28383
C           5.05501        -1.51423         3.61101
O           3.79674        -1.42040         4.31419
O           3.85555        -2.45787         5.33593
H           0.54723         0.16915        -0.98347
H           0.48975        -0.23509         0.82357
H           2.97011         0.14011        -0.96145
H           2.61174        -0.63110         2.03758
H           5.08830         0.18143         0.41391
H           6.98438         1.70004         1.77982
H           8.30176         0.92560         2.74711
H           7.16747         1.93198         3.54810
H           6.03857        -0.32686         5.21778
H           7.11931        -1.52117         4.47392
H           5.24741        -2.55310         3.30519
H           2.95679        -2.31263         5.68094

