%chk=CdCqCrNqCCOCrc1ccccc1.chk
%NProcShared=20
# opt freq b3lyp/6-31g(2df,p)

Title Card Required 

0  1
C           1.01255        -0.16535        -0.31135
C           2.33442         0.00686        -0.11836
C           3.12893        -0.97750        -0.96909
N           3.03268         0.88870         0.78160
C           2.41245         1.91469         1.70926
C           0.89329         1.90986         1.67678
O           0.15097         2.79307         2.51168
C          -1.24283         2.53007         2.25822
C           4.47305         1.02273         0.79676
C           5.21241         1.11663         1.99266
C           6.60984         1.27937         1.98616
C           7.31539         1.26343         0.78747
C           6.61715         1.15656        -0.40555
C           5.21845         1.08938        -0.39323
H           0.62532        -0.89728        -1.01639
H           0.18530         0.33301         0.16300
H           2.47706        -1.68560        -1.49682
H           3.80554        -1.57386        -0.35444
H           3.66624        -0.47701        -1.77402
H           2.76462         2.92080         1.44099
H           2.71584         1.74330         2.74925
H           0.59016         0.90384         1.98467
H           0.60786         2.17225         0.65329
H          -1.85613         3.18480         2.87664
H          -1.48679         1.48622         2.49685
H          -1.48313         2.71124         1.20208
H           4.72490         1.04394         2.96051
H           7.14878         1.41134         2.92149
H           8.39923         1.34504         0.78013
H           7.14777         1.14876        -1.35411
H           4.71691         1.11883        -1.35235

