%chk=CdCqCrCCqCrCCCCN.chk
%NProcShared=20
# opt freq b3lyp/6-31g(2df,p)

Title Card Required 

0  1
C           0.88068        -0.07310         0.04917
C           2.22571        -0.06916        -0.03881
C           2.86090         0.28224        -1.35791
C           3.06399        -0.45329         1.17218
C           4.59407        -0.32976         1.01612
C           5.03386         1.12452         0.79488
C           5.32396        -0.86926         2.26312
C           6.83845        -0.82489         2.05190
C           7.60354        -1.26128         3.28430
C           9.09939        -1.14710         3.01262
N           9.83761        -1.56217         4.19353
H           0.27023         0.20172        -0.80410
H           0.36786        -0.35197         0.96134
H           2.12789         0.35030        -2.16570
H           3.60691        -0.46225        -1.65001
H           3.31981         1.27019        -1.33823
H           2.82180        -1.49492         1.43368
H           2.75036         0.15315         2.03425
H           4.89999        -0.95148         0.16431
H           4.81805         1.72980         1.67926
H           4.56370         1.61914        -0.04190
H           6.09728         1.19210         0.55983
H           5.01515        -1.90016         2.47755
H           5.05300        -0.26765         3.14045
H           7.17172         0.19274         1.83195
H           7.10693        -1.44365         1.18673
H           7.33056        -2.28883         3.54574
H           7.32452        -0.61461         4.12610
H           9.36409        -0.11318         2.75750
H           9.37793        -1.77617         2.15996
H           9.60339        -0.94419         4.96948
H          10.83468        -1.44869         4.02304

