%chk=CdCqCCrCqCCrOOC.chk
%NProcShared=20
# opt freq b3lyp/6-31g(2df,p)

Title Card Required 

0  1
C           0.98002         0.07874        -0.14551
C           2.32697        -0.05114        -0.06770
C           3.10844        -0.78012        -1.14717
C           2.23945        -1.42372        -2.22526
C           3.11329         0.55109         1.10471
C           2.76539        -0.10221         2.46447
C           1.30597         0.00843         2.88155
O           4.52589         0.38435         0.86109
O           5.22813         1.13762         1.90001
C           6.61083         0.91680         1.65646
H           0.38173        -0.41107        -0.90192
H           0.40847         0.65377         0.56848
H           3.73522        -1.55854        -0.69489
H           3.78002        -0.06148        -1.63587
H           1.58977        -2.18902        -1.78464
H           2.84578        -1.89785        -2.99912
H           1.60892        -0.67259        -2.71622
H           2.91408         1.63063         1.13611
H           3.36647         0.36361         3.25492
H           3.06643        -1.15691         2.45181
H           0.96386         1.04756         2.82243
H           1.15926        -0.34559         3.90388
H           0.66432        -0.62029         2.25904
H           7.18680         1.38264         2.46099
H           6.89233         1.37681         0.70575
H           6.83551        -0.15433         1.63875

