%chk=CdNCONNCqNrdC1ONNC1C.chk
%NProcShared=20
# opt freq b3lyp/6-31g(2df,p)

Title Card Required 

0  1
C           1.02449        -0.11017         0.01600
N           2.30662        -0.06231        -0.08175
C           3.05509        -0.60816         1.05450
O           4.47952        -0.58498         0.84461
N           5.18138        -1.07447         2.02531
N           6.56525        -0.94693         1.82749
C           7.47900        -1.44026         2.74088
N           6.93611        -2.05282         3.85277
C           8.81960        -1.35839         2.53138
O           9.35208        -0.92644         1.32319
N          10.61686        -1.65309         1.22399
N          11.11886        -1.95568         2.53666
C           9.94289        -1.81798         3.42205
C           9.74440        -3.14295         4.14468
H           0.41530         0.28457        -0.81143
H           0.48107        -0.52397         0.87908
H           2.76185        -1.65540         1.21439
H           2.81680        -0.04272         1.96617
H           4.96158        -2.07574         1.99222
H           6.91581        -0.55388         0.95489
H           5.95466        -1.80988         3.94509
H           7.45950        -1.99447         4.71260
H          11.22101        -1.01961         0.69399
H          11.84112        -1.29802         2.83414
H          10.16062        -1.02353         4.14947
H           9.44912        -3.93287         3.44639
H           8.98468        -3.07925         4.92504
H          10.65717        -3.45007         4.66326

