%chk=COCC1dCOCdCCdCOCqOCrC1C.chk
%NProcShared=20
# opt freq b3lyp/6-31g(2df,p)

Title Card Required 

0  1
C           0.99150         0.12508         0.04922
O           2.48111         0.11464         0.04034
C           3.52862         1.20253         0.96585
C           5.67022         1.34218         1.08465
C           5.08597         2.20738         1.82071
O           6.26538         2.40605         1.98972
C           6.93663         3.16653         2.63669
C           8.16851         3.14355         2.61714
C           8.85550         3.99023         3.33745
C          10.17317         3.33911         2.78348
O          10.39192         4.42544         3.70768
C          10.01327         2.94405         2.44742
O          11.64289         4.16275         3.48421
C          13.41602         5.14318         4.31829
C           7.86399         1.71603         1.40270
C           6.19404         0.46449         0.33797
H           0.61892        -0.67611        -0.63238
H           0.59864         1.06722        -0.32395
H           0.59864        -0.09227         1.03899
H           2.69254         0.95290         1.89227
H           2.69254         2.07697         0.57097
H           4.40085         2.77540         2.30394
H           6.51656         3.81355         3.18713
H           9.01458         2.23716         1.84604
H           8.68985         4.78505         4.01362
H          11.49726         2.64857         2.19606
H          11.58841         3.53311         2.94855
H          14.29524         6.22507         5.23870
H          14.68655         5.90788         3.83621
H          14.68655         4.78988         5.15037
H           7.39269         0.64334         0.49012
H           4.64129         0.05647        -0.00915
H           5.27986        -0.85301         0.06698
H           5.27986        -0.01414        -0.91907

