%chk=COCqCOrCCCCCNCNqOrO.chk
%NProcShared=20
# opt freq b3lyp/6-31g(2df,p)

Title Card Required 

0  1
C           0.95373        -0.10744         0.05259
O           2.36397         0.06781         0.11633
C           2.79171         1.42782        -0.07108
C           2.29483         2.36385         1.05633
O           0.88353         2.57089         1.04130
C           4.33146         1.39830        -0.11395
C           4.92425         2.78364        -0.35385
C           6.44189         2.77573        -0.35950
C           6.95414         4.20078        -0.55539
C           8.47305         4.20817        -0.55097
N           8.94969         5.57371        -0.73409
C          10.40506         5.57255        -0.71575
N          10.86733         6.93929        -0.95582
O          10.41671         7.71394         0.19072
O          12.31667         6.85719        -0.86525
H           0.73111        -1.17673         0.05623
H           0.54687         0.33499        -0.86239
H           0.46976         0.31558         0.93483
H           2.41592         1.76889        -1.04424
H           2.72144         3.36282         0.96597
H           2.56971         1.95512         2.03338
H           0.61891         2.73517         0.12301
H           4.66488         0.71004        -0.90284
H           4.71943         0.97596         0.82263
H           4.62006         3.47295         0.43798
H           4.54488         3.18625        -1.30044
H           6.81629         2.12329        -1.15568
H           6.81260         2.38103         0.59473
H           6.57159         4.84733         0.24614
H           6.57383         4.60606        -1.50203
H           8.84029         3.56511        -1.35876
H           8.83657         3.80537         0.40214
H           8.63678         6.13529         0.05236
H          10.78180         4.93358        -1.52241
H          10.78810         5.19558         0.24031
H           9.54625         8.01304        -0.14448
H          12.54862         6.59222        -1.77696

