%chk=CSCCqOOrC1C2dCC1dNCC2.chk
%NProcShared=20
# opt freq b3lyp/6-31g(2df,p)

Title Card Required 

0  1
C           1.04145         0.00144        -0.05399
S           2.81925        -0.11847        -0.02477
C           3.51379         1.38912         0.92418
C           5.16139         1.37571         0.81328
O           5.48095         1.50563        -0.55364
O           5.10227         0.32041        -1.22428
C           6.03591         2.65948         1.34166
C           7.09312         2.52770         2.03868
C           7.19026         3.25304         0.50532
C           8.22931         2.78829         1.01245
N           9.33737         2.51389         1.63349
C           9.14043         1.89178         2.91267
C           7.70530         1.82288         3.11790
H           0.67856        -0.83716        -0.66865
H           0.68168         0.92521        -0.50225
H           0.66449        -0.13297         0.95500
H           3.12880         1.26182         1.94638
H           3.09405         2.29843         0.48611
H           5.43846         0.43521         1.32181
H           5.36844         0.62283        -2.09956
H           5.22008         2.94974         2.08574
H           6.97124         3.64276        -0.43418
H           9.50064         2.49013         3.75538
H           9.43412         0.85141         2.85048
H           7.31836         2.45989         3.89640
H           7.33777         0.81774         2.94841

