%chk=CtCCqCCCCrCqdOr[SH]qCrCtC.chk
%NProcShared=20
# opt freq b3lyp/6-31g(2df,p)

Title Card Required 

0  1
C           0.94341        -0.08213        -0.00720
C           2.24726        -0.08213        -0.00720
C           3.76726        -0.08213        -0.00720
C           4.21833        -0.26081        -1.44831
C           3.73025        -1.55414        -2.06965
C           4.26227        -1.67459        -3.48919
C           3.76911        -2.96828        -4.09826
C           4.36875         1.21665         0.55005
O           3.64825         2.11905         0.97569
S           6.12098         1.53391         0.75305
C           6.86127         1.58578        -0.83560
C           6.33269         3.14641         1.45280
C           6.51384         4.22690         1.95540
H          -0.12220        -0.07445        -0.00358
H           4.12445        -0.90590         0.62122
H           5.29643        -0.32786        -1.47735
H           3.92243         0.60652        -2.05516
H           2.63701        -1.59370        -2.08467
H           4.08629        -2.39521        -1.46214
H           5.35893        -1.65421        -3.48821
H           3.92197        -0.82257        -4.08983
H           4.12341        -3.82394        -3.51453
H           4.13133        -3.06837        -5.12317
H           2.67466        -2.99076        -4.10886
H           6.65918         0.57965         1.52761
H           6.33695         2.29644        -1.47637
H           6.85678         0.59595        -1.28223
H           7.91194         1.85083        -0.72692
H           6.67595         5.17167         2.41307

