%chk=NC1dCOOCOCqOCCdOrN1O.chk
%NProcShared=20
# opt freq b3lyp/6-31g(2df,p)

Title Card Required 

0  1
N           1.02599        -0.02556        -0.19943
C           2.39948         0.00615        -0.07967
C           3.01377         1.21089        -0.09459
O           4.36639         1.39019         0.07853
O           4.61195         1.49410         1.52009
C           4.37037         0.22294         2.14325
O           5.01960        -0.90602         1.58529
C           4.57067        -1.28715         0.28921
O           5.01213        -2.64456         0.04500
C           6.44161        -2.67425        -0.02782
C           6.96982        -4.05955        -0.31576
O           8.17594        -4.31550        -0.38381
N           3.10450        -1.19339         0.11019
O           2.37755        -2.34507         0.47822
H           0.53652         0.83483         0.02417
H           0.63516        -0.87038         0.21284
H           2.51320         2.15725        -0.23588
H           3.29510         0.05913         2.26331
H           4.72928         0.31589         3.17259
H           5.05648        -0.67872        -0.47977
H           6.87475        -2.36231         0.92864
H           6.79279        -2.01753        -0.83254
H           6.22041        -4.84749        -0.47661
H           3.03699        -3.06498         0.40107

