%chk=NdC1CdCCdC2CdCCdCCdS2S1.chk
%NProcShared=20
# opt freq b3lyp/6-31g(2df,p)

Title Card Required 

0  1
N           1.82945        -0.40498        -0.00353
C           2.96212         0.24087         0.01326
C           2.87007         1.73531         0.05229
C           4.06698         2.14488         0.06283
C           5.02040         3.13238         0.08818
C           6.30251         2.72553         0.07728
C           7.19447         3.85914         0.10797
C           8.50039         4.08126         0.11224
C           9.55590         3.13563         0.08310
C           9.50989         1.79592         0.04976
C           8.44035         0.71076         0.02502
S           6.68807         0.95003         0.03086
S           4.87386        -0.68852        -0.01133
H           1.06079         0.31057         0.01520
H           2.01770         2.38941         0.06914
H           4.65286         1.31753         0.04265
H           4.65795         4.13652         0.11478
H           6.64062         4.79914         0.13512
H           8.80732         5.13543         0.14230
H          10.53543         3.63470         0.09149
H          10.50835         1.36047         0.03697
H           8.87896        -0.29979         0.00042

