%chk=NNC1dC[C]2CdCCdCCdC2NdN1.chk
%NProcShared=20
# opt freq b3lyp/6-31g(2df,p)

Title Card Required 

0  2
N           1.07992        -0.06196        -0.01171
N           2.46667        -0.01095         0.02486
C           3.24936        -0.65886         0.97703
C           4.55858        -0.34858         0.95099
C           5.44081        -0.99741         1.88398
C           6.70247        -0.36020         2.19702
C           7.88786        -0.96009         2.21823
C           8.14813        -2.37298         2.07302
C           7.28209        -3.39454         2.09218
C           5.83625        -3.38679         2.26959
C           5.00256        -2.33271         2.25493
N           3.62452        -2.44545         2.42009
N           2.81702        -1.60026         1.91439
H           0.72857         0.37372        -0.86817
H           0.69677         0.50338         0.75148
H           2.98522         0.37768        -0.76226
H           5.00688         0.29073         0.20525
H           6.65485         0.72365         2.30749
H           8.76996        -0.32494         2.30101
H           9.20900        -2.60578         1.97762
H           7.70997        -4.39418         2.00864
H           5.39795        -4.37993         2.36338

