%chk=NtCCCCCqOrCCqOrdSqOrOO.chk
%NProcShared=20
# opt freq b3lyp/6-31g(2df,p)

Title Card Required 

0  1
N           0.93585         0.06480        -0.04106
C           2.19681         0.06480        -0.04106
C           3.71681         0.06480        -0.04106
C           4.22320         0.62986        -1.34980
C           5.74780         0.64132        -1.37438
C           6.24812         1.20688        -2.69991
O           5.74202         2.53055        -2.87172
C           7.76605         1.24257        -2.75642
C           8.33498         1.80326        -4.02615
O           7.52942         2.20837        -5.01751
S          10.12590         1.97724        -4.10084
O          10.34683         0.39171        -4.25809
O          10.17263         2.36197        -5.65885
O          11.54098         2.65177        -6.05219
H           4.06852        -0.96291         0.10321
H           4.06883         0.66312         0.80674
H           3.83070         1.64598        -1.48126
H           3.84179         0.03330        -2.18834
H           6.13159        -0.37621        -1.22986
H           6.11246         1.25249        -0.53868
H           5.85394         0.59827        -3.52198
H           6.08409         3.08435        -2.14510
H           8.15667         0.22634        -2.62462
H           8.15074         1.86043        -1.93557
H           6.58987         2.22353        -4.76872
H          10.55831        -0.00954        -3.38540
H          11.31201         3.02895        -6.91679

