%chk=OdC1CCCqOrCdC2OC2CNCN1.chk
%NProcShared=20
# opt freq b3lyp/6-31g(2df,p)

Title Card Required 

0  1
O           1.09012         0.19649        -0.06205
C           2.28835         0.08691         0.01306
C           3.03710        -1.22174        -0.05061
C           2.95017        -2.06892         1.21155
C           4.08233        -3.11282         1.24790
O           3.94457        -3.98039         0.10883
C           5.51154        -2.55008         1.28907
C           5.89366        -1.36463         1.77286
O           6.89730        -0.86696         0.95284
C           6.72582        -0.19525         2.16367
C           5.86746         1.02940         2.35750
N           5.17711         1.50634         1.15870
C           3.75168         1.41322         1.35953
N           3.19196         1.14261         0.07262
H           4.08206        -0.97771        -0.26731
H           2.67807        -1.75921        -0.93326
H           1.96486        -2.55672         1.22371
H           3.00073        -1.46462         2.12158
H           3.93196        -3.76833         2.10889
H           3.90747        -3.46392        -0.71391
H           6.21375        -3.14973         0.71570
H           7.75009         0.12642         2.36311
H           6.42355         1.86862         2.79558
H           5.16360         0.75905         3.15895
H           5.43807         0.91872         0.36762
H           3.33845         2.34182         1.76677
H           3.47218         0.60768         2.04471
H           2.93323         1.95708        -0.46381

