%chk=OdCC1dCqC2dNCdC2rSCdCCdC1.chk
%NProcShared=20
# opt freq b3lyp/6-31g(2df,p)

Title Card Required 

0  1
O           1.19072        -0.52749        -0.32740
C           2.30227        -0.13143        -0.01417
C           3.04187         0.97893        -0.73588
C           2.56130         2.23760        -0.67681
C           1.35566         2.42612         0.15385
N           0.70143         1.73167         0.99743
C          -0.27578         2.73146         1.10553
C           0.49447         3.56965         0.37527
S           3.09809         3.71732        -1.38069
C           4.54438         3.49744        -2.24755
C           5.29395         2.42968        -2.50529
C           5.15369         1.05935        -2.13334
C           4.21821         0.46319        -1.39808
H           2.91240        -0.65887         0.74285
H          -1.20036         2.71882         1.66183
H           0.43763         4.60776         0.08064
H           4.91571         4.42793        -2.67834
H           6.18071         2.60879        -3.11639
H           5.94381         0.41622        -2.52406
H           4.34828        -0.61527        -1.27290

