%chk=[C]C1CCCqdOrCq[N]NNdOrCNdCCN1.chk
%NProcShared=20
# opt freq b3lyp/6-31g(2df,p)

Title Card Required 

0  1
C           1.07837        -0.27199         0.24157
C           2.59459         0.02551         0.07072
C           2.78094         1.31132        -0.73026
C           4.01607         2.07195        -0.26285
C           4.45156         3.03444        -1.34608
O           3.63162         3.82226        -1.84770
C           5.88989         2.95993        -1.83585
N           6.81261         2.97210        -0.68574
N           6.58701         4.06492         0.21357
N           7.25725         4.09465         1.30737
O           6.96247         5.10858         1.94873
C           6.05513         1.68667        -2.72155
N           5.95222         0.45867        -1.90180
C           4.89003        -0.25185        -2.02359
C           4.52586        -1.24547        -0.92898
N           3.10026        -1.19140        -0.57224
H           3.00838         0.13125         1.08277
H           1.91894         1.98489        -0.66521
H           2.83209         1.07767        -1.79990
H           4.83323         1.38995        -0.01908
H           3.82506         2.62439         0.66058
H           6.06095         3.84044        -2.47224
H           5.94330         4.81704        -0.00930
H           7.04292         1.70582        -3.19748
H           5.31149         1.70151        -3.53044
H           4.18360        -0.13805        -2.86393
H           5.16103        -1.10584        -0.04795
H           4.72363        -2.24070        -1.33881
H           2.89567        -1.93022         0.09981

