%chk=[N]dNC1dCC2SCdNCqdC1OrC2dN.chk
%NProcShared=20
# opt freq b3lyp/6-31g(2df,p)

Title Card Required 

0  2
N           1.13047        -0.08613        -0.26142
N           2.32040         0.32607        -0.20729
C           3.00435         0.02951        -1.35358
C           3.83577        -1.04240        -1.43718
C           4.58714        -1.34224        -2.68623
S           6.27238        -0.64464        -2.44971
C           6.13005         0.73394        -3.57363
N           5.06615         1.48524        -3.79069
C           3.81995         0.87706        -3.53838
C           3.02293         1.02088        -2.44575
O           1.83892         1.76120        -2.45041
C           4.06300        -0.56585        -3.87313
N           4.33019        -0.92452        -5.09806
H           4.01301        -1.65514        -0.56473
H           4.62431        -2.40688        -2.91673
H           7.04301         0.86419        -4.18584
H           1.66782         2.18983        -3.30366
H           4.30477        -0.07217        -5.68925

