%chk=[O]CqOrdCdNNd[C]CdO.chk
%NProcShared=20
# opt freq b3lyp/6-31g(2df,p)

Title Card Required 

0  1
O           1.20746        -0.04418        -0.18951
C           2.45064         0.01373        -0.04172
O           3.12767         0.50662         1.06182
C           3.14956        -0.41711        -1.07091
N           3.78040        -0.81234        -2.00456
N           3.89182        -2.18971        -1.91270
C           4.43946        -2.80764        -2.75236
C           4.93817        -4.04480        -3.32218
O           5.56128        -4.19382        -4.36708
H           4.07589         0.44244         0.89395
H           4.69083        -4.88808        -2.65592

