%chk=[S]N1CC1dC1NCdCCdNC1dS.chk
%NProcShared=20
# opt freq b3lyp/6-31g(2df,p)

Title Card Required 

0  2
S           1.69847         0.18026        -0.33998
N           3.10615         0.26460         0.51523
C           4.31635        -0.46093         0.00062
C           4.20605         0.96575         0.15419
C           4.78055         2.16599         0.09784
N           4.12285         3.38873         0.37002
C           4.07234         4.40118        -0.56630
C           5.06324         4.85331        -1.33643
C           6.43502         4.46472        -1.00085
N           6.94226         3.42184        -0.44978
C           6.31459         2.25629        -0.03955
S           7.37700         1.02562         0.49788
H           4.25469        -0.88875        -0.99640
H           4.61410        -1.15255         0.77473
H           3.22438         3.20609         0.82482
H           3.08613         4.84908        -0.66926
H           4.93490         5.62970        -2.08084
H           7.16568         5.25310        -1.26793

