%chk=C.NdC1CdCCdC2[N]N1CN2N.chk
%NProcShared=20
# opt freq b3lyp/6-31g(2df,p)

Title Card Required 

0  2
C           0.58811         0.49932         1.51428
N           1.05533        -0.04342        -1.05675
C           2.24288        -0.10137        -0.58259
C           2.83339        -1.10542         0.47427
C           3.35690        -2.26688         0.00001
C           3.28976        -2.45032        -1.47899
C           3.72006        -1.33931        -2.14368
N           4.47541        -0.40014        -1.42093
N           3.40554         0.52529        -1.29131
C           3.23563         0.88976        -2.70347
N           2.99323        -0.53099        -3.15928
N           1.55070        -0.75810        -3.48402
H           1.60722         0.87195         1.66600
H           0.13165         1.10875         0.72712
H           0.01177         0.51642         2.42045
H           0.60349        -0.55745         1.22637
H           0.44372        -0.76647        -0.63221
H           3.19414        -0.68453         1.40741
H           4.12315        -2.80022         0.56938
H           2.52194        -3.14768        -1.79602
H           4.21459         1.19343        -3.10926
H           2.49958         1.66362        -2.93058
H           1.16959         0.17785        -3.71716
H           1.05031        -0.84011        -2.58241

