%chk=c1ccc2ccncc2cccc2ccnc-2c1.chk
%NProcShared=20
# opt freq b3lyp/6-31g(2df,p)

Title Card Required 

0  1
C           1.08587        -0.35805         0.39613
C           2.49458         0.03970         0.18756
C           3.36007        -0.43166         1.10551
C           4.80324        -0.63283         0.92859
C           5.54468         0.52792         0.80691
C           6.90176         0.40998         0.62087
N           7.57394        -0.75839         0.67887
C           6.84075        -1.87933         0.87435
C           5.45030        -1.90489         0.93188
C           4.79645        -3.23405         0.96379
C           3.47094        -3.29965         0.75527
C           2.52931        -4.32495         0.75058
C           1.22395        -4.02466         0.56355
C           0.33568        -5.11748         0.82338
C          -0.89261        -4.60473         0.80550
N          -0.99391        -3.25777         0.45361
C           0.24118        -2.82357         0.25316
C           0.60768        -1.40367        -0.32537
H           0.91777        -0.43249         1.47101
H           2.82792         0.52359        -0.73374
H           2.95468        -0.95583         1.97108
H           5.06025         1.49522         0.85738
H           7.49699         1.29273         0.42270
H           7.43181        -2.78553         0.98464
H           5.38898        -4.13199         1.08720
H           2.92349        -2.41947         0.56710
H           2.87179        -5.32620         1.01684
H           0.63570        -6.13340         1.04361
H          -1.74922        -5.23257         1.02309
H          -0.13498        -0.97694        -1.03303

