%chk=C1dCC2dCqCdCCdCCdCCdCCCdC2r[SH]d1.chk
%NProcShared=20
# opt freq b3lyp/6-31g(2df,p)

Title Card Required 

0  1
C           1.05053        -0.06412         0.05775
C           2.41093        -0.06412         0.05775
C           4.53461         0.12103        -2.01080
C           2.37385         0.04582        -1.07510
C           4.47813         0.12964        -1.95937
C           6.41190         0.18769        -2.28444
C           8.18846         0.29030        -3.20273
C           9.12966         0.26760        -3.74068
C           8.40259         0.95870        -4.60834
C          10.35569         0.54589        -4.25727
C          10.58054         0.65573        -6.43447
C          11.83568         0.72896        -6.15616
C          11.59350         0.51998        -6.97299
C           9.21378         0.19499        -5.24099
C           6.98543         0.20506        -3.90674
S          -0.56942        -0.06412         0.05775
H           2.96804        -0.15950         0.96223
H           5.41289         0.27948        -3.20576
H           7.17652         0.11086        -1.60141
H           7.26447         0.43895        -5.00875
H           9.33943         0.24916        -2.86276
H           8.62607         0.58037        -6.30700
H          11.38598         0.37062        -4.10930
H          10.78521         0.77631        -7.76919
H          13.23264         0.54192        -5.59405
H          13.13142         1.47559        -7.94594
H          13.15815         0.05896        -8.11375
H          11.36306         0.36846        -5.11861
H           5.45641         0.40041        -4.39693
H          -1.29604        -1.19734         0.02242

