%chk=C1dCSSCdCSCdCSCdCNdCSSNdC1.chk
%NProcShared=20
# opt freq b3lyp/6-31g(2df,p)

Title Card Required 

0  1
C           5.56042         0.72614         1.16098
C           3.79264         0.32844         0.48526
S           3.83510         1.33452         2.14589
S           6.06132         1.63376         2.63827
C           6.68079         2.29462         3.72652
C           8.03483         1.98811         3.22453
S           8.12164         2.75412         4.48342
C           9.39331         2.44148         3.93049
C          10.50036         2.83945         4.62136
S          11.57571         1.91351         3.08982
C          12.50814         3.32260         5.39749
C          14.35922         2.94278         4.85147
N          15.48173         3.46437         5.65953
C          16.88738         3.70846         6.05140
S          14.70298         3.85014         6.27655
S          12.68691         2.50294         4.09337
N           9.98433         1.82901         3.00419
C           7.93755         1.22214         1.97945
H           3.72893         0.51654         0.80021
H           2.87993        -0.35873        -0.64258
H           5.66918         2.05885         3.33819
H           9.01080         1.10790         1.78742
H           9.86168         1.35025         2.10482
H          10.90818         3.33934         5.44761
H          13.14229         3.93737         6.43461
H          15.59928         2.71237         4.38270
H          17.78512         3.39353         5.53663
H           6.84129         0.61089         0.94613

