%chk=C1dCCdCCdCSCdCCdCCdCNdCCdCCdC1.chk
%NProcShared=20
# opt freq b3lyp/6-31g(2df,p)

Title Card Required 

0  1
C           6.72184        -0.98049         1.26398
C           4.48046        -0.47419         0.60160
C           3.49845        -1.24925         1.61385
C           4.81714        -1.25652         1.62384
C           5.41967        -1.90568         2.46955
C           6.67139        -1.95329         2.53156
S           7.54381        -2.67990         3.47865
C           9.30167        -2.59178         3.36404
C          10.13761        -3.09954         4.02560
C          11.33711        -3.08613         4.00739
C          12.46134        -3.54342         4.60418
C          13.69943        -3.53890         4.59909
C          14.27160        -4.24403         5.51774
N          15.27634        -3.99224         5.18927
C          16.22475        -4.40906         5.73270
C          16.89429        -3.59614         4.67221
C          14.78401        -2.97279         3.86048
C          12.14252        -2.23636         2.90244
C           9.45810        -1.55360         2.00925
H           4.54390        -0.56255         0.71673
H           3.18745         0.46696        -0.62349
H           2.61139        -1.42670         1.84503
H           5.83587        -0.30830         0.38796
H           4.72700        -2.25524         2.92507
H           7.60351        -1.73934         2.25227
H          10.15478        -2.17362         2.82048
H           9.85184        -3.65657         4.75173
H          11.04916        -1.96106         2.53887
H          12.22549        -4.12268         5.35932
H          14.47512        -2.35162         3.05205
H          14.62364        -4.70989         6.12461
H          16.88020        -5.01266         6.51942
H          18.89739        -3.64633         4.73825
H          16.70230        -3.66077         4.75698
H          13.75946        -2.77767         3.60422
H           7.64576        -1.07379         1.38819

