%chk=C1dCCdCCdCCdCC2dCqCdN2rNdCCdC[SH]d1.chk
%NProcShared=20
# opt freq b3lyp/6-31g(2df,p)

Title Card Required 

0  1
C           4.68988        -2.69138        -0.31138
C           3.48078        -1.38542         0.01095
C           3.41502        -0.98522        -1.32418
C           4.77745        -0.66060        -1.23294
C           5.59964        -1.68300        -2.01946
C           6.88936        -1.89802        -1.76741
C           7.45812        -3.00221        -2.49999
C           8.64310        -3.04688        -1.98872
C           9.29768        -3.27252        -3.15705
C          10.56307        -3.10172        -2.92085
C          10.97924        -4.21079        -2.53939
N           9.70859        -4.38473        -3.63298
N          11.56242        -4.25656        -3.89866
C          12.10461        -5.48303        -3.34500
C          10.19011        -6.01639        -2.74237
C           8.43750        -5.33809        -1.94688
S           6.32308        -4.22364        -0.98187
H           3.05248         0.16242         0.27759
H           2.63252        -1.90988        -1.60911
H           5.15633        -0.24088        -0.19709
H           4.92055        -2.74626        -2.45668
H           7.29063        -1.39310        -0.88466
H           6.99086        -4.07515        -2.86670
H           9.24049        -2.39747        -1.44130
H          11.91619        -3.29840        -2.06162
H          13.33713        -4.83615        -2.91140
H          11.34742        -6.52813        -3.65269
H           9.97858        -5.61353        -2.05934
H           4.68120        -3.38916        -1.06606

