%chk=C1dCCdc2ccc3cqc2CdC1rCCdCCd3.chk
%NProcShared=20
# opt freq b3lyp/6-31g(2df,p)

Title Card Required 

0  1
C           1.23308        -0.25426        -0.21933
C           2.22776         0.64405        -0.43712
C           3.25618        -0.02174        -1.26001
C           4.37886        -0.46256        -0.68445
C           5.20767         0.34090         0.15584
C           6.47783         0.14876         0.11366
C           7.02187        -1.01951        -0.58177
C           6.00541        -2.15117        -1.05771
C           4.61922        -1.90091        -0.69248
C           3.02071        -2.44764        -0.42567
C           1.78774        -1.75191         0.03490
C           6.96231        -3.28205        -1.71521
C           8.52074        -3.11313        -1.69156
C           9.16642        -2.08069        -1.15065
C           8.36729        -1.04053        -0.59684
H           0.31925        -0.51418        -0.78697
H           2.65004         1.10211         0.48700
H           2.70254        -0.71775        -1.92951
H           4.72442         1.15099         0.68155
H           7.13920         0.88324         0.57712
H           2.91008        -3.06074        -1.33792
H           1.51187        -1.28897         1.04330
H           6.77755        -3.35244        -2.80036
H           6.81342        -4.23653        -1.21838
H           9.14814        -3.88730        -2.14254
H          10.25777        -1.99582        -1.11597
H           8.96202        -0.24000        -0.13836

