%chk=C1dCCdC2CdCCdCSSSCCdCC2dCCdC1.chk
%NProcShared=20
# opt freq b3lyp/6-31g(2df,p)

Title Card Required 

0  1
C          -1.48957         0.24790         0.48494
C          -1.16658        -1.04833         0.49469
C          -0.35180        -1.70802        -0.55233
C           0.97461        -1.74838        -0.86004
C           1.73565        -1.54362        -2.44616
C           0.98196        -2.18038        -3.30559
C           1.97902        -2.36002        -4.28648
C           1.53593        -3.28719        -5.12610
S           2.74702        -3.41394        -6.37435
S           1.50858        -4.79533        -7.44867
S           3.21567        -5.49635        -8.31373
C           2.32594        -6.33134        -6.70561
C           2.51199        -5.28212        -4.72267
C           2.45192        -4.15286        -3.13666
C           2.16308        -2.58178        -1.55968
C           1.89612        -0.85385        -0.73271
C           0.65429         0.74119        -0.81925
C          -0.77556         1.02079        -0.49757
H          -2.16575         0.66622         1.24660
H          -1.57221        -1.67166         1.27322
H          -0.82483        -2.23754        -1.29723
H           3.09571        -1.13114        -2.09372
H           0.28211        -2.88440        -2.72204
H           3.21930        -2.46361        -3.91704
H           0.79431        -4.13195        -4.70435
H           1.93038        -6.59539        -8.21949
H           2.17345        -7.50660        -7.69467
H           3.25729        -6.10251        -5.68653
H           3.10339        -3.73655        -2.13733
H           1.82862         0.16174         0.30882
H           0.80156         1.91133        -1.24674
H          -1.53896         1.59938        -1.17706

