%chk=C1dCCdC2CCCC3dCS3dCCdC2CdC1.chk
%NProcShared=20
# opt freq b3lyp/6-31g(2df,p)

Title Card Required 

0  1
C          -0.14403         1.91698        -0.01223
C          -1.28814         1.27541         0.06079
C          -1.50168        -0.11993         0.42353
C          -0.74079        -1.39206         0.64314
C          -0.89556        -3.40426         0.38892
C          -2.16137        -3.94672         0.09990
C          -2.60256        -5.29561         0.02142
C          -3.88283        -4.67903        -0.02182
C          -5.02461        -5.20149        -0.04652
S          -4.60177        -3.12417        -0.11250
C          -2.66105        -1.97888        -0.47377
C          -0.59587        -1.78017        -0.92902
C           0.39007        -1.16057        -0.13947
C           1.39880        -0.01725        -0.02784
C           1.14255         1.30160         0.02136
H          -0.22882         2.99285        -0.03051
H          -2.23546         1.84011        -0.02067
H          -2.53810         0.06271         0.14649
H          -0.36588        -3.89526         1.13862
H          -0.47650        -3.84586        -0.71771
H          -2.44085        -3.65944        -1.01626
H          -2.57657        -3.52406         1.04444
H          -2.28009        -5.68713         0.96807
H          -2.26864        -5.66234        -0.94754
H          -5.38387        -6.22956         0.00162
H          -3.27725        -1.17926        -0.07966
H           0.42614        -2.60471        -0.42309
H           2.49332        -0.22555         0.01240
H           1.95092         2.03358         0.02089

