%chk=C1dCCdC2CdCNdC2NdC[N]SCdCNdC1.chk
%NProcShared=20
# opt freq b3lyp/6-31g(2df,p)

Title Card Required 

0  2
C           1.87052         0.24622         1.66828
C           2.64602         0.03589         0.58462
C           3.07293        -0.24918        -0.83583
C           4.41554        -0.30287        -1.09832
C           5.21608        -0.56946        -2.27895
C           6.50689        -0.49153        -1.89599
N           6.72706        -0.19501        -0.57529
C           5.53633        -0.08359        -0.11880
N           5.20637         0.21970         1.14527
C           5.95876         0.41277         2.08386
N           5.40553         0.67185         3.23565
S           6.52599         0.87178         4.46741
C           5.25186         1.30996         5.49202
C           4.05284         0.73931         5.68227
N           2.80443         0.82936         4.71665
C           2.21456         0.65080         3.46781
H           0.82055         0.21891         1.33532
H           3.47895         0.19183         1.15077
H           2.43347        -0.44508        -1.71232
H           4.89958        -0.79250        -3.28183
H           7.38527        -0.63066        -2.50477
H           7.04423         0.39217         2.05869
H           4.86085         2.18846         5.02131
H           4.15140         1.19466         6.80823
H           1.14762         0.85470         3.70351

