%chk=C1dCCdNNCNCdNNdCqCC2CS2rCdC1.chk
%NProcShared=20
# opt freq b3lyp/6-31g(2df,p)

Title Card Required 

0  1
C           3.00820        -0.63574         1.31865
C           3.16391        -0.01445         0.05605
C           4.09499        -0.75073         1.11372
N           5.32610        -0.56698         1.07682
N           6.14866        -1.10159         2.70391
C           7.00452        -0.95075         1.85653
N           6.40541        -1.82309         2.66431
C           8.28388        -1.47496         2.86484
N           8.95313        -2.19570         3.73953
N          10.21170        -2.18123         4.46234
C           8.89595        -2.46015         4.96074
C           9.71021        -3.32089         6.93882
C           8.36314        -3.28916         6.95278
C           7.82895        -2.04315         6.36496
S           7.69418        -3.99837         5.57351
C           6.69989        -1.66052         4.03923
C           4.78267        -1.31284         2.77580
H           1.23602        -0.52898         0.97760
H           2.94123         0.29913        -0.90608
H           2.74801        -1.31626         2.49945
H           4.88670        -1.80509         3.73626
H           7.02085        -0.05074         2.23388
H           7.02485        -1.79707         1.40380
H           5.77561        -2.24281         4.26000
H           9.35165        -1.49911         3.10548
H           9.98752        -2.95295         8.23846
H           9.98607        -4.54201         7.49880
H           8.02228        -3.58813         7.86533
H           8.78511        -1.18762         5.77680
H           7.33640        -1.26823         5.92807
H           8.19271        -2.32757         4.92114
H           3.16494        -0.75733         1.82785

