%chk=C1dCSC2dCNdNCSCdCqCd1rCdC2.chk
%NProcShared=20
# opt freq b3lyp/6-31g(2df,p)

Title Card Required 

0  1
C           3.69315         0.96274         0.84488
C           2.48610         0.11303         0.15272
S           3.69625         1.68706         1.43490
C           6.24861         0.73934         0.66290
C           6.42539         2.31418         1.94575
N           6.67372         0.98438         0.86251
N           6.81814         2.40881         2.02283
C           8.90007         2.60884         2.18577
S          10.16043         3.78119         3.14075
C           9.75735         2.31962         1.95018
C           7.94964         1.62156         1.38155
C           5.31362         1.55743         1.32931
C          10.09860         1.75170         1.48756
C           8.42322         0.98806         0.86550
H           2.96509        -0.75215        -0.55205
H           5.39246         2.77535         2.32141
H           9.49586         2.44569         0.46094
H           9.49586         0.88665         2.37483
H          11.47436         1.89288         1.60256
H           4.02168         0.58769         0.53937
H          11.52873         2.72460         2.28007
H           7.45523         0.05469         0.10520

