%chk=C1dCCdc2ccccccc3cqc2CNdC1rCdCNdNCd3.chk
%NProcShared=20
# opt freq b3lyp/6-31g(2df,p)

Title Card Required 

0  1
C           1.22510        -0.08774         0.02751
C           2.49323         0.10809         0.28247
C           4.10308         0.78245         1.14030
C           6.04020         0.89475         1.28282
C           5.21549         1.59517         2.17802
C           6.39448         1.69453         2.30658
C           7.17060         2.38920         3.19315
C           8.42741         2.48845         3.32427
C           9.33470         3.19477         4.22310
C          10.64429         2.64506         3.49868
C          11.10125         3.47797         4.56793
C          10.08765         2.22327         2.99867
C           8.22435         1.22543         1.69563
C           6.22120         0.19374         0.38500
N           4.22607        -0.71061        -0.73114
C           2.31013        -1.18838        -1.16131
C          12.05682         3.17173         4.21088
C          13.82666         3.83879         5.08744
N          14.99664         4.79231         6.38051
N          13.77019         5.15336         6.48390
C          11.92976         4.54550         5.97481
H           0.48280         0.41505         0.69780
H           2.93086        -0.32036        -0.36941
H           2.78259         1.25694         1.74762
H           4.63042         2.08311         2.80299
H           7.24877         1.87015         2.53203
H           6.77162         2.91025         3.85748
H           9.29587         1.62493         2.23035
H           8.92254         3.72732         4.90273
H          11.70855         2.31580         3.10483
H           4.93792         0.11373        -0.80863
H           4.93882        -0.95003         0.02245
H           0.52752        -1.13032        -1.43017
H          13.12036         4.01934         5.28665
H          15.46476         3.97065         5.21599
H          10.77383         4.83661         6.30626

