%chk=C1dCCdC2CdCqCdC1rC1dNNdNCdNN1SCCdCN2.chk
%NProcShared=20
# opt freq b3lyp/6-31g(2df,p)

Title Card Required 

0  1
C          -0.75394        -0.35302         0.88056
C          -0.63133        -1.70676         0.96218
C           0.14776        -2.32566        -0.06728
C           0.74460        -1.31487        -0.74698
C           1.73180        -0.34747         0.32565
C           1.60680         1.02128         0.44903
C           0.90803         1.55657        -0.59090
C          -0.25854         0.92373        -0.35167
C           1.75548         2.03514         1.62717
N           3.06089         2.11094         1.70635
N           3.82783         2.88010         2.49226
N           3.50080         3.81681         3.20613
C           2.25778         4.15433         3.59757
N           1.06812         3.76783         3.30826
N           0.74019         2.83338         2.38927
S          -1.17438         2.99167         2.40535
C          -1.54457         1.88167         1.15605
C          -2.57816         0.86948        -0.03294
C          -2.10387        -0.23791        -1.07528
N          -0.53617        -0.75685        -1.65221
H          -1.68966        -0.22921         1.46951
H          -1.41015        -2.23369         1.52756
H          -0.55651        -2.92260        -0.66693
H           2.11159        -0.84619         1.21917
H           1.02082         2.34921        -1.30271
H          -0.92001         1.42856        -1.11797
H           2.26806         4.96386         4.34406
H          -0.94670         1.24352         1.84237
H          -0.98573         2.54680         0.52174
H          -3.58874         0.83065         0.36405
H          -2.72830        -1.10589        -1.29809
H          -0.49063        -1.36746        -2.47079

