%chk=Cc1cscqdSrc2ccccccsc12.chk
%NProcShared=20
# opt freq b3lyp/6-31g(2df,p)

Title Card Required 

0  1
C           0.94003        -0.25237         0.04600
C           2.40455        -0.60709         0.03815
C           2.95264         0.67752         0.04489
S           4.48875         1.32149         0.04406
C           5.35481        -0.12849         0.05260
S           7.05469         0.25034         0.06436
C           4.60591        -1.59257         0.04032
C           5.79243        -2.34835         0.04968
C           5.59838        -3.58835         0.06626
C           6.36350        -4.72507         0.07618
C           5.44855        -5.63052         0.07354
C           4.90441        -6.88185         0.02112
C           3.55289        -6.40732        -0.04605
S           2.58862        -4.34864        -0.01397
C           3.24983        -2.16146         0.02388
H           0.71736         0.85642         0.04879
H           0.49938        -0.57662         0.97825
H           0.49539        -0.57376        -0.88461
H           2.39304         1.63182         0.05109
H           6.81853        -2.11165         0.05359
H           4.55620        -3.65044         0.06479
H           7.40138        -4.78413         0.01727
H           4.59854        -5.12650         0.38056
H           6.00660        -7.13314         0.04941
H           3.13524        -7.48571         0.03311

