%chk=CC1CdCCdc2ccncccccc2dCSCC1.chk
%NProcShared=20
# opt freq b3lyp/6-31g(2df,p)

Title Card Required 

0  1
C           1.21142         0.06627        -0.06224
C           2.92323        -0.05975        -0.09422
C           3.37034        -1.15460         1.02665
C           4.75641        -1.37921         1.25969
C           5.99445        -2.30484         2.21897
C           7.57255        -2.74384         2.72855
C           6.77066        -3.55246         3.50003
C           7.72052        -4.26370         3.86680
N           7.91712        -5.13613         4.78230
C           9.16319        -5.04212         4.80731
C          10.10927        -5.68949         5.54753
C          11.01294        -5.72024         4.37662
C          11.70295        -5.10345         5.34183
C          11.09824        -3.73972         4.16318
C           9.68145        -2.92863         2.98745
C           8.81179        -1.78716         1.80901
S           8.09395        -0.23921         0.35528
C           6.18773         0.99056        -0.56163
C           4.17663         1.27900        -0.08140
H           0.75734        -0.92573        -0.33397
H           0.75474         0.75795        -0.79491
H           0.75724         0.28660         0.91821
H           2.98308        -0.36343        -1.13681
H           2.46255        -1.60223         1.49884
H           5.16689        -0.67965         0.57317
H           4.83762        -2.77721         2.68366
H           5.85171        -3.92241         3.80757
H           8.42768        -3.51186         4.03027
H           9.60025        -4.38962         4.10264
H           9.64195        -6.43046         6.19249
H          12.37589        -5.16831         4.08403
H          11.75994        -6.36050         6.19348
H          12.00820        -4.39757         5.37202
H           7.61160        -1.57259         1.43384
H           6.46403         0.90372        -1.87747
H           6.84931         2.08224        -1.02539
H           3.22824         2.11497        -0.39810
H           3.78707         1.56139         1.04249

