%chk=CC1CdCC2dCCqdCCdCCdCCdNNN1rO2.chk
%NProcShared=20
# opt freq b3lyp/6-31g(2df,p)

Title Card Required 

0  1
C           1.47601         1.31822         0.03349
C           2.57778         3.16451         0.11423
C           3.43015         1.79102        -0.66742
C           4.71753         1.71521        -0.37169
C           5.32191         3.01627        -0.57428
C           6.14207         3.43190        -1.51872
C           5.89649         4.72498        -1.04385
C           6.26689         5.94781        -1.44788
C           5.94231         7.16248        -0.80660
C           6.43852         8.37005        -1.09180
C           6.27889         9.50444        -0.19784
C           6.41248        10.73747        -0.70700
C           4.97210        10.79384        -0.26780
N           4.11180         9.40784        -0.76660
N           3.50616         7.44409        -0.53115
N           3.30852         5.27826        -0.17842
O           5.28832         4.18001        -0.03504
H           0.78210         0.97175         0.85386
H           1.32787        -0.19193         0.20466
H           0.93557         0.61818        -0.98265
H           3.03368         1.95330         0.76829
H           2.50969         2.19248        -1.02209
H           5.22404         0.75493        -0.26293
H           6.70488         2.93382        -2.25349
H           7.03537         6.06672        -2.18368
H           5.26394         6.95467         0.01097
H           7.08283         8.54917        -1.92050
H           5.43470         9.30184         0.69601
H           6.98685        11.08391        -1.58051
H           4.78923        11.94301         0.52682
H           3.90925         8.65822         0.06633
H           3.77710         4.43725        -0.87248

