%chk=Cc1csccc2cqcn1rdNNdCCdCNd2.chk
%NProcShared=20
# opt freq b3lyp/6-31g(2df,p)

Title Card Required 

0  1
C           2.21898        -0.04857        -0.03648
C           4.35490        -0.18130         0.07416
C           3.63635        -1.11625         0.85426
S           4.94561        -1.75855         1.39020
C           5.98993        -2.68210         2.16073
C           7.30111        -2.94133         2.38027
C           8.79659        -3.86870         3.14345
C           9.05801        -2.41104         1.93305
C           7.90036        -1.06028         0.80765
N           6.26039        -0.39635         0.25365
N          10.30268        -2.89952         2.34485
N          11.71314        -3.42836         2.78209
C          11.94310        -4.58490         3.74829
C          13.39064        -4.67467         3.82319
C          12.08327        -4.98529         4.08203
N          10.14585        -4.63572         3.79503
H           1.23140        -0.79380         0.58526
H           1.27204        -0.22367        -1.00582
H           1.27204         0.87369         0.30944
H           2.71987        -1.60793         1.26451
H           5.22190        -3.15706         2.55700
H           7.18948        -2.13738         1.70620
H           9.23819        -0.84858         0.63097
H          11.06176        -5.73504         4.70788
H          14.14619        -4.09294         3.33782
H          13.06607        -5.81719         4.77641

