%chk=Cc1cc2cq[nH]1rdCCdCCqdNrCdCCdCNdCCd2.chk
%NProcShared=20
# opt freq b3lyp/6-31g(2df,p)

Title Card Required 

0  1
C           1.06144         0.03442        -0.09931
C           2.69075        -0.02015        -0.09592
C           4.47141        -0.01159        -0.09209
C           5.97333        -1.75926        -0.09701
C           4.49431        -0.96566        -0.08366
N           3.19968        -1.15558        -0.10002
C           5.47127        -2.14146        -0.05411
C           5.10035        -3.47439        -0.07229
C           5.99406        -4.64564        -0.03299
C           5.73879        -5.81407        -0.22882
N           4.67487        -6.06757        -0.02426
C           6.79008        -5.43345        -0.07406
C           6.77215        -7.25398        -0.09365
C           8.88684        -7.32211        -0.14244
C           7.26060        -8.65384        -0.09535
N           8.44326        -8.03770         0.00378
C           8.01648        -6.15913         0.05307
C           7.07634        -3.56583        -0.06878
H           0.64654         1.03680        -0.09875
H           0.64674        -0.49084         0.78028
H           0.64674        -0.49090        -0.97850
H           3.53902         1.46133        -0.10181
H           2.93079        -2.03868        -0.10673
H           7.39589        -2.33895        -0.01539
H           4.16643        -3.44669        -0.09449
H           7.86018        -4.48268        -0.00946
H           4.18122        -5.23800        -0.08792
H           8.66347        -5.14963        -0.12360
H           5.90794        -8.06159        -0.07376
H           9.90844        -8.10515        -0.03824
H           7.28538       -10.13804        -0.06243
H           8.32880        -8.22373        -0.00014
H           6.67529        -1.74581        -0.11587

