%chk=CC1CdC2CqdCCdNCdCqOrC1rC1dC2CqdOrCC1.chk
%NProcShared=20
# opt freq b3lyp/6-31g(2df,p)

Title Card Required 

0  1
C           0.88975         0.22218        -0.23936
C           2.34605         0.56533        -0.61279
C           2.91296         1.21126         0.69824
C           4.18124         1.02223         1.08380
C           5.34252         0.65535         0.31406
C           5.73960         0.81355        -0.92847
C           5.02618         1.90892        -1.54428
N           5.22841         2.25085        -2.75936
C           4.08681         2.80240        -3.23427
C           3.02865         2.01898        -3.44772
O           2.30687         2.40039        -4.60848
C           2.50752         0.88588        -2.35538
C           6.03135         0.40637         1.50884
C           5.05285         1.05175         2.17862
C           5.41644         1.09785         3.55964
O           4.68858         1.17277         4.56456
C           6.94889         0.84137         3.60290
C           7.38205         0.52608         2.13280
H           0.78930        -0.18545         0.78457
H           0.48931        -0.54598        -0.90285
H           0.28830         1.12976        -0.28502
H           2.81295        -0.44408        -0.54397
H           2.22207         1.51130         1.49439
H           6.60923         0.38056        -1.38318
H           4.19595         2.37855        -0.97889
H           3.71214         3.72873        -2.78752
H           2.90813         2.98256        -5.15601
H           3.27918         0.12107        -2.53081
H           1.56941         0.50346        -2.76448
H           7.13276        -0.02998         4.23530
H           7.48901         1.72028         3.96212
H           8.03694        -0.33621         1.99750
H           7.86367         1.37946         1.63692

