%chk=CC1CNdNC2dCCdC3CdCCqdC31rCqdOrNCCC2.chk
%NProcShared=20
# opt freq b3lyp/6-31g(2df,p)

Title Card Required 

0  1
C           0.61571        -0.24098         0.48591
C           1.99678         0.28721         0.55636
C           2.97934         0.42438         1.90613
N           3.06424         1.72633         2.68201
N           3.94689         2.65531         2.30326
C           3.40506         4.03489         2.22820
C           2.10922         3.97661         2.51164
C           1.71987         3.25045         1.23396
C           2.42915         2.52026         0.21227
C           3.68836         1.67319        -0.50416
C           3.25119         0.84007        -1.56655
C           2.06297         1.67684        -1.78970
C           1.60085         1.66556        -0.49444
C           2.47171         2.55693        -2.97632
O           2.99873         1.99857        -4.00833
N           2.50978         3.89370        -2.85752
C           3.27161         4.50028        -1.77971
C           2.43835         5.03975        -0.62819
C           3.41391         5.09065         0.79941
H           0.39206        -0.99619         1.21569
H           0.48483        -0.65368        -0.53487
H          -0.05098         0.61724         0.56137
H           2.57909        -0.53268         0.05504
H           4.02517         0.23019         1.62554
H           2.71593        -0.40624         2.57148
H           1.72247         3.59470         3.47178
H           0.99473         4.05678         1.01757
H           4.66060         1.36633        -0.12096
H           2.40332         0.15025        -1.95700
H           1.69045         4.34427        -3.24615
H           3.92273         5.27317        -2.17231
H           3.95695         3.74422        -1.41289
H           1.49222         4.47346        -0.62047
H           1.99926         6.01146        -0.89479
H           3.08945         6.07392         1.20067
H           4.44705         5.20279         0.48220

