%chk=Cc1cccqNNdNNCCqdOr[N]Orcc1.chk
%NProcShared=20
# opt freq b3lyp/6-31g(2df,p)

Title Card Required 

0  2
C           2.45363        -0.00732        -0.01262
C           0.95026        -0.00093         0.00149
C           0.19770        -1.17896         0.00273
C          -1.21840        -1.13363        -0.00376
C          -1.92210         0.08932        -0.01468
N          -3.33615         0.15091        -0.02552
N          -4.00184         1.35255        -0.05615
N          -5.24481         1.15771        -0.08185
N          -5.91609         2.35736        -0.10098
C          -7.38024         2.47398        -0.12945
C          -7.85459         3.95748        -0.13865
O          -7.02995         4.88021        -0.12076
N          -9.20040         4.04257        -0.16679
O          -9.67379         5.40046        -0.17614
C          -1.14274         1.25241        -0.00181
C           0.26210         1.21397         0.00377
H           2.86134        -1.02371         0.00075
H           2.84794         0.52033         0.86322
H           2.82653         0.48793        -0.91650
H           0.70702        -2.14230         0.00557
H          -1.75009        -2.08253        -0.00326
H          -3.87818        -0.70115        -0.06084
H          -5.37957         3.22074        -0.08652
H          -7.77664         1.97931         0.76329
H          -7.74013         1.97989        -1.03778
H         -10.63673         5.27307        -0.19638
H          -1.63218         2.22240         0.00042
H           0.81007         2.15327         0.00595

