%chk=Cc1cccccccccnqCtNr[nH][nH][nH]1.chk
%NProcShared=20
# opt freq b3lyp/6-31g(2df,p)

Title Card Required 

0  1
C           2.99826        -0.24758         0.19200
C           5.35838        -0.62624         0.51353
C           3.66582        -1.00153         0.83220
C           5.00748        -1.27681         1.06595
C           5.31886        -2.19526         1.84584
C           6.56799        -2.39949         2.01926
C           7.22732        -3.14232         2.65003
C           8.46586        -3.11491         2.62676
C           8.95312        -3.97522         3.35728
C          10.10340        -3.65926         3.08898
C          11.21054        -4.56878         3.86129
N          13.04600        -4.34908         3.67473
C          14.03962        -3.58394         3.02502
N          14.65787        -2.84546         2.39795
N          11.64444        -3.70600         3.12867
N           9.81736        -2.38697         2.00863
N           7.62838        -1.24260         1.03690
H           1.39906        -0.67048         0.55110
H           1.57276        -0.20793        -0.70365
H           1.57276         0.64264         0.29804
H           2.76292        -1.64096         1.37517
H           6.40999        -1.07668         0.89601
H           4.65216        -2.70122         2.27547
H           7.85808        -2.21384         1.86162
H           6.81000        -3.75147         3.16728
H           8.88855        -1.76365         1.47935
H           9.03107        -4.70180         3.97424
H          11.07586        -2.42505         2.04097
H          11.19493        -5.48178         4.63655
H          12.44102        -4.87673         4.12278
H          11.25308        -3.12445         2.63485
H           7.28195        -0.27672         0.21674

