%chk=Cc1ccccsc2cccccccc-2cn1.chk
%NProcShared=20
# opt freq b3lyp/6-31g(2df,p)

Title Card Required 

0  1
C           2.80937         0.07029         0.03771
C           5.24599        -0.06846         0.26042
C           3.50870        -0.50972         1.19958
C           4.70317        -0.66783         1.51827
C           5.40802        -1.16776         2.52724
C           6.72876        -1.24958         2.69348
S           7.77385        -1.80493         3.81539
C           9.72247        -1.63977         3.47983
C          10.29726        -2.13854         4.47930
C          11.63273        -2.15198         4.41472
C          11.87385        -2.55446         5.61026
C          12.69937        -1.86776         4.61248
C          13.93472        -2.65131         5.57416
C          15.20855        -2.13378         4.43521
C          13.50323        -2.06253         3.17221
C          11.39378        -1.35826         2.72252
C           9.37047        -0.79728         1.64427
N           7.29021        -0.30457         0.87359
H           1.28905        -0.28110         0.73650
H           1.32530        -0.37308        -0.68969
H           1.32667         0.90788        -0.05483
H           2.79679        -0.90561         1.99779
H           5.72374        -0.63119         1.44631
H           4.81711        -1.52046         3.23946
H           7.52301        -0.97603         2.14449
H           9.90145        -2.54997         5.31841
H          12.36518        -1.55428         3.28952
H          12.36773        -3.13693         6.33330
H          13.19459        -1.05237         3.08769
H          14.60997        -3.16403         6.55112
H          16.73388        -2.18035         4.56995
H          14.95529        -2.19655         4.59528
H           9.66296        -0.24909         0.66011

