%chk=CC1dCCdCCdCCdCc2ccccc2S1.chk
%NProcShared=20
# opt freq b3lyp/6-31g(2df,p)

Title Card Required 

0  1
C           2.77283        -0.60770        -0.01898
C           4.76476        -1.48378         0.35114
C           3.88348        -0.73452         1.25415
C           4.97466        -0.06607         1.60589
C           5.51017        -0.66066         2.64315
C           6.89183        -0.38319         2.78462
C           7.54248        -1.14038         3.63404
C           8.88561        -0.74779         3.67002
C           9.59388        -1.49203         4.49567
C          10.36359        -1.58107         3.31851
C          11.86163        -0.66094         3.80309
C          13.20353        -0.79802         3.57523
C          13.02887        -2.07375         3.26612
C          11.29992        -2.62399         2.56831
C           9.40837        -2.43069         2.13145
S           7.14107        -1.92202         0.88054
H           1.58272        -0.63305         0.83062
H           1.61214        -0.86771        -0.76891
H           1.87951         0.57020        -0.10799
H           2.94839        -0.94243         1.93421
H           5.49544         0.41978         0.77438
H           4.91126        -1.42363         3.15440
H           7.60222        -0.01175         1.94140
H           7.07669        -1.90732         4.22077
H           9.37299        -0.33259         2.61755
H           9.32551        -2.27445         5.20085
H          11.59483         0.38245         3.70983
H          13.98676        -0.13155         3.12737
H          14.37412        -2.29782         3.58818
H          11.91767        -3.15802         3.82152

