%chk=CC1dCqCrSC2dCNC2dCCdCCdCCdC1.chk
%NProcShared=20
# opt freq b3lyp/6-31g(2df,p)

Title Card Required 

0  1
C           1.10864        -0.67758         0.27378
C           2.30397        -1.92872         0.49311
C           3.16207        -1.59005        -0.53228
C           2.55401        -2.27921        -1.68451
S           4.87238        -1.13276        -0.58314
C           5.55665        -2.42852        -1.52196
C           6.37956        -2.71206        -2.56194
N           6.10314        -3.97958        -2.49650
C           5.47559        -3.81639        -1.42324
C           4.96648        -4.63578        -0.49685
C           4.97716        -6.02407        -0.66300
C           4.67352        -6.65506         0.45824
C           3.58272        -7.53001         0.35712
C           2.65241        -6.87555         1.10925
C           2.16825        -5.18126         0.84720
C           2.39086        -3.66826         1.04347
H           0.30270        -1.00538        -0.38857
H           1.40747         0.27349        -0.30709
H           0.73404        -0.21083         1.19352
H           1.46767        -2.13717        -1.66361
H           2.73860        -3.31872        -1.44239
H           2.90787        -2.04628        -2.67575
H           6.98357        -2.14433        -3.25409
H           6.42290        -4.85092        -2.93441
H           4.56752        -4.16690         0.37017
H           4.90506        -6.51379        -1.62275
H           4.62773        -6.09328         1.40398
H           3.84474        -8.58111         0.10233
H           2.05199        -7.62306         1.66443
H           1.19593        -5.67963         0.80156
H           3.33525        -3.37686         1.50468

