%chk=CC1dC2CqdCCdCCdC2SSrCdCCdC1.chk
%NProcShared=20
# opt freq b3lyp/6-31g(2df,p)

Title Card Required 

0  1
C           0.98113         0.13683        -0.07837
C           2.42720        -0.31517        -0.08045
C           2.92374        -1.65388        -0.07945
C           4.58849        -1.64625        -0.07128
C           5.31759        -2.80639        -0.06677
C           4.60692        -3.95214        -0.07733
C           4.04062        -5.10623        -0.07553
C           2.52089        -4.71973        -0.08490
C           1.99701        -3.27538        -0.08592
S           0.29236        -2.93178        -0.11230
S          -0.82811        -4.58124        -0.10046
C           5.57817        -0.60078        -0.06365
C           5.55343         0.71600        -0.06193
C           4.39633         1.51315        -0.07003
C           3.13044         1.07238        -0.08027
H           0.32656        -0.68704        -0.06618
H           0.69633         0.69403        -0.98320
H           0.70140         0.70388         0.82197
H           6.36892        -2.95952        -0.06354
H           3.79192        -3.37432        -0.08867
H           4.73095        -5.94603        -0.07575
H           2.05976        -5.73485        -0.09174
H          -1.98033        -3.88532        -0.10705
H           6.59514        -0.98226        -0.05803
H           6.51900         1.21691        -0.05618
H           4.63353         2.58580        -0.06852
H           2.45930         1.95143        -0.08923

