%chk=CC1dCdCCdCCdCCdCqNrCdCO1.chk
%NProcShared=20
# opt freq b3lyp/6-31g(2df,p)

Title Card Required 

0  1
C           3.10469        -0.39878        -0.22216
C           5.16248        -0.83561        -0.62531
C           4.00934        -1.27429        -1.10899
C           3.96280        -2.37960        -1.61223
C           5.01948        -3.06884        -1.04504
C           5.88180        -3.60867        -1.83915
C           7.03639        -4.01703        -1.18503
C           7.71077        -4.86132        -1.91251
C           8.79010        -5.35932        -1.06676
C           9.66727        -5.79468        -1.96460
N           9.54424        -6.34184        -3.28277
C          10.08747        -4.05249        -1.67120
C           8.83402        -2.66533        -1.43228
O           7.08010        -1.76526        -1.05080
H           1.76064        -0.90794        -0.67265
H           2.01436         0.53650        -0.56446
H           1.95755        -0.28421         0.68637
H           3.29147        -2.52115        -2.36618
H           5.42124        -2.83007        -0.04573
H           5.48526        -3.81305        -2.78685
H           7.64862        -3.45095        -0.28213
H           7.48873        -5.10702        -2.95560
H           9.40783        -4.60396        -0.16169
H           8.60116        -6.34976        -3.66317
H          10.07039        -7.13834        -3.69504
H          11.28338        -4.89086        -1.31391
H           9.58619        -3.64797        -2.30609

