%chk=CC1dCCqc2[nH]nc3c2CdCCdCCdC3rdC1.chk
%NProcShared=20
# opt freq b3lyp/6-31g(2df,p)

Title Card Required 

0  1
C           0.95235         0.02666         0.09426
C           2.46352        -0.00144         0.07279
C           3.18162         0.97838         0.78711
C           4.68901         0.98337         0.77387
C           5.44901         2.05713         1.53535
N           5.20935         2.47578         2.76950
N           6.12071         3.32163         3.16807
C           7.05139         3.53065         2.25495
C           7.36572         3.04033         0.94797
C           9.46938         3.98617         0.06505
C          11.02926         5.16618         0.00784
C           9.98366         4.86768         0.54658
C           9.89233         5.31767         1.73946
C           8.74463         4.47404         1.59196
C           8.01136         4.34837         2.56277
C           3.24881        -1.05139        -0.66914
H           0.58904         0.86095         0.68706
H           0.59616        -0.91630         0.50523
H           0.59570         0.10159        -0.93066
H           2.63501         1.75772         1.32198
H           4.38735         2.17942         3.32495
H          10.97963         4.80556        -0.49048
H          12.02419         6.24275         0.66223
H          10.22230         4.27200        -1.08421
H          10.54335         5.97379         2.27012
H           8.27087         3.61576         0.21311
H           8.36518         4.93939         3.28410
H           3.26352        -1.92493        -1.27525

