%chk=CC1dCCdCC2dCqCdCCdCCdCC3dCC3NCdC1rN2.chk
%NProcShared=20
# opt freq b3lyp/6-31g(2df,p)

Title Card Required 

0  1
C           2.92063         0.16233         0.03709
C           5.45537         0.35239         0.10412
C           3.72272         1.02158         0.34013
C           4.96951         1.36878         0.46258
C           5.42838         2.45051         0.84409
C           6.81922         2.53131         0.87259
C           7.71168         3.37157         1.16893
C           9.02016         3.61839         1.25598
C           9.79058         4.57737         1.59420
C          11.18318         4.67578         1.62890
C          11.93286         5.67592         1.98164
C          13.24696         5.86119         2.04698
C          14.02895         6.81172         2.38221
C          15.01247         6.13939         2.14509
C          16.02616         6.48777         2.26796
C          14.64175         4.55174         1.58516
N          12.49828         3.01885         1.04453
C          10.25273         1.75035         0.59715
C           8.07057         0.85839         0.28258
N           8.24799         2.24513         0.77166
H           1.27325         0.86492         0.28488
H           1.30442        -0.48393         0.53468
H           1.30442        -0.02879        -0.75582
H           2.75033         2.03142         0.69629
H           6.44936         1.12298         0.37590
H           4.83470         3.20999         1.11195
H           9.53190         2.88358         0.99683
H           9.24946         5.41283         1.88885
H          11.48062         3.84770         1.33686
H          11.43791         6.52611         2.28148
H          13.36213         4.94293         1.72313
H          13.64833         7.66355         2.68264
H          16.43173         8.17998         2.86478
H          16.41595         4.72183         1.64515
H          13.96303         3.65835         1.27009
H          11.93552         1.80407         0.61610
H           6.81381        -0.20711        -0.09321
H           9.22817         0.94002         0.31137

