%chk=CC1dCqCtNrCdCN[N]CdC1.chk
%NProcShared=20
# opt freq b3lyp/6-31g(2df,p)

Title Card Required 

0  2
C           1.60654        -0.17919        -0.01148
C           3.47753         0.11120         0.30004
C           3.16819         1.13103         1.09449
C           2.18931         1.82710         1.78718
N           1.66917         2.59623         2.52129
C           4.28732         1.42933         1.72557
C           5.27476         2.25639         1.82296
N           6.62163         2.10188         0.96284
N           7.17126         1.66701         2.09715
C           6.70087         0.29192         1.48084
C           5.37482        -0.19434         0.16384
H           0.94593         0.55175         0.64557
H           1.03433        -1.06039         0.37664
H           1.03698         0.14593        -0.93147
H           4.83720         1.15083         0.95073
H           5.03969         2.86992         2.72252
H           7.38823         1.18733         0.25983
H           7.98218         0.85269         1.54962
H           4.77451        -0.74584        -0.49422

