%chk=CC1dNC2dCCdCCdCCdCN1CC2OCO.chk
%NProcShared=20
# opt freq b3lyp/6-31g(2df,p)

Title Card Required 

0  1
C           1.16472         0.02516         0.07061
C           2.98349        -0.14187         0.04807
N           2.95167        -1.44345         0.08606
C           4.20106        -1.74052         0.18415
C           5.04116        -2.67855         0.09807
C           6.35319        -2.73252         0.13007
C           7.27239        -3.60857         0.13549
C           8.14694        -2.53437         0.49383
C           9.19607        -3.00516         0.00440
C           8.12631        -1.33310        -0.27024
C           6.63820        -0.03756        -0.22032
N           4.73445         0.31121        -0.02506
C           5.83080         1.30218        -0.24751
C           5.26586        -0.80969         0.17519
O           5.98416        -0.17609         1.75679
C           6.90788         1.33264         1.59231
O           7.71468         1.39662         2.66436
H           0.68374        -1.03793         0.07550
H           0.68675         0.46081        -0.81626
H           0.68900         0.46027         0.96589
H           4.77598        -3.60095         0.07178
H           6.57713        -1.74992         0.27370
H           7.12807        -4.64360         0.09985
H           9.34967        -1.46428         0.60237
H           9.33707        -4.47222         0.09986
H           9.46192        -2.24925        -0.37815
H           5.01249         0.43118         0.09599
H           5.04979         1.71455         0.86438
H           5.15717         1.65020        -1.04848
H           5.49322        -0.53728        -1.28786
H           6.23375         2.22269         1.54662
H           7.54472         1.50143         0.62033
H           7.01910         1.23643         3.31241

