%chk=CC1dCCdC2CdCCdC1CdCCdCCdCS2.chk
%NProcShared=20
# opt freq b3lyp/6-31g(2df,p)

Title Card Required 

0  1
C           2.35424        -0.13935        -0.53778
C           4.16637        -0.84863        -0.83575
C           3.91762        -1.31275         0.43908
C           5.06729        -1.38158         1.21889
C           5.68497        -0.35972         1.84859
C           4.95623         0.84884         1.99219
C           4.80393         1.45858         0.80032
C           5.88866         0.84900        -0.56128
C           6.04446        -0.61963        -1.16600
C           7.67033        -1.80965        -1.71706
C           9.14017        -2.64355        -1.77431
C          10.40513        -2.84203        -0.62175
C           9.52644        -3.01093         0.34165
C           9.16972        -1.67707         0.77418
C           7.88327        -1.41811         0.90372
S           7.40326        -0.04266         1.76365
H           1.68377        -0.81796         0.18842
H           1.56884        -0.20209        -1.32067
H           1.96822         0.76263         0.10874
H           2.99598        -1.54508         0.98513
H           5.51730        -2.09708         0.57000
H           4.58453         1.11856         2.98743
H           4.08210         2.34313         1.01252
H           5.19719         1.61723        -1.03798
H           8.81745        -1.25904        -1.92246
H           9.78441        -3.74666        -2.12008
H          11.40319        -2.33291        -0.42403
H           8.70424        -3.65647        -0.07194
H           9.90255        -0.87331         0.80678
H           7.22565        -2.15080         0.42310

