%chk=CC1dC2CdCCdNCdC1[C]N2.chk
%NProcShared=20
# opt freq b3lyp/6-31g(2df,p)

Title Card Required 

0  1
C           0.89518        -0.23481        -0.56871
C           2.46194        -0.31984        -0.47428
C           3.19711        -1.32687         0.16963
C           4.72238        -1.13993         0.40782
C           5.37001        -0.21503         1.18280
C           4.88968         1.01888         1.96218
N           4.21149         2.04197         1.53691
C           3.51256         1.71475         0.40894
C           2.63460         0.72008         0.54459
C           2.36735        -0.08237         1.73799
N           2.55243        -1.52322         1.43179
H           0.38508        -0.99569         0.04075
H           0.50555        -0.23582        -1.58250
H           0.53444         0.72200        -0.13457
H           5.34864        -1.90088        -0.06180
H           6.45444        -0.24449         1.26754
H           5.14941         1.03154         3.03524
H           3.90237         2.07009        -0.55447
H           3.10912        -2.10839         2.04922

