%chk=CC1dNC1CCdCC[SH]d[SH]SCCdS.chk
%NProcShared=20
# opt freq b3lyp/6-31g(2df,p)

Title Card Required 

0  1
C           0.80651         0.03852        -0.04234
C           2.22484        -0.12705         0.12157
N           3.33991         0.24140        -0.24395
C           3.15634        -0.89460         0.88052
C           2.25049        -1.75211         1.72768
C           2.93633        -2.71136         2.67490
C           2.28741        -3.55406         3.50692
C           2.99737        -4.50095         4.45321
S           1.80385        -5.42772         5.51817
S           2.85569        -6.68126         6.42719
S           1.43068        -7.62195         7.57094
C           2.34389        -8.77177         8.67667
C           1.37600        -9.60713         9.49962
S           1.92845       -10.73910        10.61537
H           0.56091         0.79310        -0.78844
H           0.38628         0.32317         0.92597
H           0.38642        -0.92652        -0.33813
H           4.20648        -1.06738         1.05124
H           1.60268        -2.35253         1.07210
H           1.60328        -1.10351         2.33641
H           4.02345        -2.70256         2.66795
H           1.19839        -3.55303         3.50679
H           3.64470        -3.92538         5.12234
H           3.59670        -5.21519         3.87906
H           1.22932        -6.19575         4.61667
H           3.43029        -5.90792         7.32602
H           2.97939        -8.20370         9.36401
H           2.96649        -9.45185         8.08571
H           0.29394        -9.46110         9.34811

