%chk=CC1dC2CdCCdCCdCCdCdCCdCC2dNC1dS.chk
%NProcShared=20
# opt freq b3lyp/6-31g(2df,p)

Title Card Required 

0  1
C           0.89471        -0.07857        -0.07168
C           2.23922         0.26722         0.07536
C           2.77086         1.51056         0.09135
C           2.70507         2.72775         0.71754
C           1.38121         3.00041         0.70797
C           0.96074         4.34142         0.83678
C          -0.34658         4.60203         0.69389
C          -0.55931         6.06757         0.77192
C          -1.86447         6.34772         0.89092
C          -2.17762         7.80676         0.38446
C          -3.18635         7.80038        -0.35281
C          -2.61618         6.50537        -1.11197
C          -0.81608         5.38167        -1.41137
C           0.61139         4.17844        -1.43457
C           2.20213         2.59854        -1.32885
N           3.28483         1.25959        -1.14242
C           3.42310        -0.33987        -0.26871
S           2.89477        -2.29273        -0.18618
H           0.45607         0.85892        -0.08613
H           0.59419        -0.51076         0.85016
H           0.61437        -0.50583        -1.00888
H           3.68468         3.39065         0.55652
H           0.69087         2.37740         0.02441
H           1.65658         5.16229         0.36818
H          -1.03116         3.86004         0.06388
H           0.03143         6.82634         0.10810
H          -2.61357         5.41427         0.35989
H          -1.61672         8.64107        -0.02233
H          -3.89055         6.85096        -0.38736
H          -1.55702         6.57944        -1.62707
H           2.04426         4.27289        -1.21190

