%chk=CC1dCCdCC2dCC2dCdCCdC1.chk
%NProcShared=20
# opt freq b3lyp/6-31g(2df,p)

Title Card Required 

0  1
C           1.12239        -0.05604         0.20070
C           2.64054         0.04114         0.11988
C           3.06319         0.17003        -1.15518
C           4.42491         0.10330        -1.43406
C           5.19364         0.32015        -2.48144
C           6.54387         0.31842        -2.15511
C           7.74548         0.47399        -2.55714
C           7.58969         0.07852        -1.16028
C           6.97067         0.04509         0.01823
C           6.27252        -0.22096         1.14204
C           4.85512         0.26841         1.61805
C           3.59706        -0.22338         1.29027
H           0.66990         0.08552        -0.80048
H           0.68520         0.72779         0.82006
H           0.76834        -1.04140         0.51982
H           2.42268         0.27927        -2.01805
H           4.93175        -0.21609        -0.56996
H           4.80552         0.57767        -3.44782
H           8.08794         0.52051        -3.56671
H           6.72584        -0.90413         1.86189
H           4.94074         1.35791         1.65322
H           3.09116        -0.80765         2.06690

