%chk=CC1dCC2dCCdCdc3ccccc3dCC1dC2.chk
%NProcShared=20
# opt freq b3lyp/6-31g(2df,p)

Title Card Required 

0  1
C           1.05030         0.10780         0.08401
C           2.58923        -0.02413         0.07121
C           3.06238        -1.21092        -0.01139
C           4.40670        -1.39233        -0.61283
C           5.73244        -1.58427        -1.00936
C           4.92558        -2.88846        -0.29375
C           5.98029        -3.50479        -0.16627
C           7.36093        -3.60455        -0.12594
C           9.17677        -3.54501        -0.03439
C           9.99569        -4.54250        -0.29528
C           8.93147        -5.37719        -0.06646
C           7.47228        -4.44012         0.48901
C           6.71358        -2.56486         0.93600
C           5.54178        -0.87277         1.05189
C           4.20313         0.28044         0.22316
C           5.35955         0.01611        -0.42102
H           0.61181        -0.92432         0.07205
H           0.63134         0.58754        -0.81709
H           0.62821         0.59238         0.96320
H           2.66282        -2.15946         0.08695
H           6.90967        -0.95462        -0.26674
H           4.23461        -3.64111         0.00121
H           9.25106        -2.60671         0.24955
H          11.04480        -4.44420        -0.50172
H           9.92901        -6.42641        -0.37773
H           7.62305        -5.89088         0.34058
H           4.54398         0.37243         0.85620
H           5.66508         1.21710        -0.01506

