%chk=CC1dCC2CNqCrCCNqCdNrCCqdNNdC1rCdCNN2.chk
%NProcShared=20
# opt freq b3lyp/6-31g(2df,p)

Title Card Required 

0  1
C           2.01379        -0.06020        -0.43771
C           3.55457        -0.04922        -0.16464
C           3.51182        -0.11449         1.24094
C           4.85941        -0.12757         1.65324
C           5.00840        -1.85170         0.87557
N           5.59021        -2.93960         1.65978
C           6.08311        -2.23836         2.80252
C           6.70225        -3.57926         0.86561
C           8.10886        -3.65157         1.51939
N           8.93910        -2.45397         1.33366
C           9.46045        -2.09381         0.12238
N           9.23385        -2.59219        -1.07654
C           8.92024        -1.37292         2.33862
C           8.44551        -0.02108         1.43990
N           7.90950        -0.06358         0.16931
N           6.43561        -0.06258         0.09154
C           5.33869        -0.01480        -0.74412
C           8.52533         1.33340         2.09730
C           7.21321         1.57642         2.29710
N           6.36523         2.10066         1.33170
N           5.02737         1.53366         1.30194
H           1.42529        -0.16069         0.52983
H           1.57445        -0.93545        -0.92727
H           1.57610         0.89860        -0.73708
H           2.72097        -0.22166         1.94207
H           4.87434        -0.11065         2.73625
H           5.56997        -1.89772        -0.06716
H           4.07015        -2.23409         0.40481
H           5.32761        -1.73259         3.39350
H           6.69851        -1.45716         2.38255
H           6.60030        -2.86792         3.50690
H           6.82919        -3.17564        -0.15031
H           6.35509        -4.59895         0.65818
H           8.65520        -4.48283         1.06365
H           8.01360        -3.92261         2.57207
H          10.09111        -1.19502         0.15216
H           8.57704        -3.34093        -1.00648
H           9.84529        -1.46357         2.94861
H           8.24131        -1.49427         3.20304
H           5.48426        -0.07611        -1.83042
H           9.08739         2.03483         1.48919
H           6.68571         0.77103         2.77496
H           6.83489         2.08251         0.39627
H           4.66845         1.73922         0.35067

