%chk=CC1dCdCdCC2dCqOrCCdCCdC2CdCC1dO.chk
%NProcShared=20
# opt freq b3lyp/6-31g(2df,p)

Title Card Required 

0  1
C           1.51177         0.07765        -0.00059
C           3.04010         0.00691        -0.69421
C           2.93203         0.35557        -1.91971
C           3.41877         0.63527        -2.93214
C           4.15643         0.52565        -3.99030
C           4.47602        -0.85063        -4.41374
C           3.45532        -1.69624        -4.60820
O           2.18477        -1.49338        -4.09746
C           3.37810        -2.94270        -5.35999
C           4.43742        -3.40835        -6.24996
C           5.68653        -2.96292        -6.39407
C           6.38645        -1.92106        -5.57101
C           5.89391        -1.19923        -4.48700
C           6.58687        -0.33705        -3.32618
C           6.02539         0.17200        -2.04036
C           4.76654         0.16170        -0.60136
O           5.15681         0.36234         0.56086
H           0.80850         0.15880        -0.88015
H           1.12924         0.95083         0.57493
H           1.06814        -0.83308         0.45103
H           4.88918         1.31808        -4.07882
H           2.15808        -0.72227        -3.53336
H           2.51655        -2.75417        -6.01748
H           3.16291        -3.72631        -4.63855
H           4.08638        -4.27750        -6.81357
H           6.26532        -3.59209        -7.08899
H           7.42970        -1.94695        -5.92304
H           7.43041         0.14821        -3.89913
H           6.39713         1.24094        -2.05788

