%chk=CC1dCdCdCCdCCdCd[SH]CNdNN1.chk
%NProcShared=20
# opt freq b3lyp/6-31g(2df,p)

Title Card Required 

0  1
C           2.22454        -0.02316        -0.41596
C           4.06142         0.19621        -1.17251
C           3.26855         0.85944        -1.88415
C           3.54057         1.34730        -2.93232
C           4.38912         1.58496        -3.80543
C           5.51789         2.44112        -3.46840
C           6.30231         2.79484        -4.48855
C           7.57499         3.46768        -4.31164
C           8.26628         3.82664        -5.33323
S           9.01807         3.86683        -6.69405
C           9.13489         1.79410        -6.14603
N           7.82934         0.85730        -4.96628
N           7.10784         0.70067        -3.38441
N           5.64500         0.00582        -2.30145
H           1.31620         0.33063        -1.11701
H           1.68550         0.74308         0.42601
H           1.58870        -0.91534        -0.01513
H           4.35515         0.77350        -4.52166
H           5.96034         2.50287        -2.44402
H           6.09542         2.20521        -5.40227
H           8.04550         3.55073        -3.34632
H          10.10732         4.64243        -6.42514
H           9.06237         1.58696        -7.36350
H          10.37920         1.81444        -6.28462
H           6.08955         0.25378        -1.36347

