%chk=CC1dNC2dSqCqdOrNdN2rCqCrdN1.chk
%NProcShared=20
# opt freq b3lyp/6-31g(2df,p)

Title Card Required 

0  1
C           1.20014         0.11582         0.04396
C           2.70935         0.09412         0.06037
N           3.36090         1.26708         0.15013
C           4.70405         1.28627         0.09762
S           5.69395        -0.02162        -0.32125
C           6.28717         0.36563         1.23723
O           6.56981        -0.54750         2.01035
N           6.31845         1.71120         1.52117
N           5.41712         2.27033         0.82294
C           4.63598        -1.27464         0.12860
C           5.21438        -2.66022         0.09413
N           3.28663        -1.12538         0.09607
H           0.79678         1.13431         0.03846
H           0.80681        -0.39858         0.92765
H           0.81902        -0.40308        -0.84270
H           6.31066        -2.61797         0.08754
H           4.90663        -3.17688        -0.82033
H           4.91396        -3.23774         0.97069

