%chk=CC1dC2NNSCdNCdCCdCdCdC2CdCCdC1.chk
%NProcShared=20
# opt freq b3lyp/6-31g(2df,p)

Title Card Required 

0  1
C           1.11158         0.29814        -0.05036
C           2.47541        -0.02102        -0.06152
C           2.78967        -1.34076        -0.05550
N           1.95114        -2.65812        -0.01681
N           0.66985        -2.09493        -0.30035
S          -0.68735        -2.25080         0.28097
C          -2.03159        -2.80295        -0.38268
N          -2.77782        -3.44484         0.39631
C          -3.78878        -3.91099        -0.27817
C          -4.29628        -5.48798        -0.18952
C          -2.56959        -5.34549        -0.15285
C          -0.81091        -4.74007        -0.10347
C           0.86507        -4.05743        -0.08151
C           2.43312        -2.90977        -0.05961
C           4.27661        -1.75956        -0.05321
C           5.08505        -0.13938        -0.04771
C           4.49842         1.36993        -0.05168
C           3.19565         1.24286        -0.06443
H           0.56607        -0.51075         0.09802
H           0.70325         0.56328        -0.99028
H           0.71487         0.60237         0.87496
H           2.46836        -4.17490        -0.06381
H           0.66897        -1.73496        -1.16619
H          -2.36654        -1.86839        -0.14507
H          -4.54715        -3.24960        -0.12846
H          -4.28220        -6.67918        -0.08831
H          -4.30780        -5.22188        -0.02252
H           5.71084        -1.58196        -0.04642
H           6.33944         0.69094        -0.04073
H           4.87737         2.46608        -0.04686
H           2.57498         2.12062        -0.07307

