%chk=CC1dCC2dCCdCCdCc3cnccc3C2dN1.chk
%NProcShared=20
# opt freq b3lyp/6-31g(2df,p)

Title Card Required 

0  1
C           1.64089        -0.30183         0.32728
C           3.39590        -1.03759         0.81787
C           3.72852        -1.63448        -0.30129
C           5.18716        -2.05960         0.32244
C           6.06764        -1.77761        -0.60358
C           5.79969        -3.09672        -1.04232
C           6.85697        -3.82430        -0.80651
C           6.49399        -5.13493        -1.00964
C           7.55620        -5.84616        -0.67101
C           6.56518        -6.45993         0.09167
C           6.36102        -7.90742        -0.85979
N           6.26374        -9.17491        -0.57046
C           6.52054        -9.03730         0.70279
C           6.54207        -7.36952         1.53540
C           6.24798        -5.60905         1.37062
C           5.25167        -3.60959         1.29569
N           4.17550        -2.44852         1.75682
H           0.91940        -1.11746         0.13133
H           1.22866         0.34300        -0.67382
H           1.04805         0.38391         1.01859
H           2.90389        -2.38063        -0.18757
H           6.92485        -1.27730        -0.13578
H           4.73790        -3.63467        -0.70909
H           7.67952        -3.46740        -0.16494
H           5.33534        -5.42531        -0.66077
H           8.51819        -5.58300        -0.21037
H           5.94506        -7.71789        -1.84924
H           6.89242       -10.19905         0.84192
H           7.81177        -7.90255         1.45094

