%chk=CC1dCNdCCdCCdCCdCqSNOrC1.chk
%NProcShared=20
# opt freq b3lyp/6-31g(2df,p)

Title Card Required 

0  1
C           2.28981         0.11076         0.05627
C           4.55633         0.37724         0.41270
C           3.42613         1.06337         0.88267
N           4.65288         1.28814         0.98863
C           5.34043         2.02129         1.65576
C           6.78213         2.20647         1.68534
C           7.18900         2.97475         2.52816
C           8.08893         2.88027         1.36089
C           8.89949         3.32642         2.52923
C          10.23307         2.84215         2.44668
C           8.99126         1.58501         2.28715
S          10.95553         3.22842         3.22992
N          12.96579         4.54960         4.17760
O          14.93727         5.26440         4.54647
C           6.80748         0.63419         1.12342
H           0.97470         0.79163         0.60907
H           1.02757        -0.84127         0.27558
H           1.04004         0.25846        -0.96179
H           2.71912         1.68558         1.37575
H           4.77955         2.59903         2.20921
H           7.98196         1.32892         0.92206
H           6.92314         3.67133         3.15798
H           9.16017         1.78564         0.73329
H           9.11167         4.14730         3.55917
H          11.67336         2.37981         1.99368
H          13.63015         5.21008         5.40470
H          15.92998         5.80110         4.03108
H           5.79251        -0.27604         0.42524
H           5.90223         0.35174        -0.19733

