%chk=CC1dCCdNc2cc3cccc-3cccnc1o2.chk
%NProcShared=20
# opt freq b3lyp/6-31g(2df,p)

Title Card Required 

0  1
C           2.10270        -1.01244        -0.53738
C           3.72931        -1.71808        -0.50603
C           3.60812        -1.57144         0.82638
C           4.85023        -1.10706         1.30632
N           5.51994        -2.10218         1.81847
C           6.56605        -2.28425         0.99145
C           7.56220        -3.05900         1.52572
C           8.92991        -3.23421         1.20768
C           9.84407        -2.34465         1.66310
C          11.18325        -2.86258         1.49521
C          11.13130        -4.09615         0.95227
C           9.71274        -4.39365         0.73685
C           9.15145        -5.48535         0.17057
C           7.63282        -5.53233         0.13647
C           6.75282        -5.08012        -0.82936
N           5.37654        -4.29007        -0.76929
C           5.16786        -2.94061        -0.65159
O           6.34400        -2.14054        -0.40348
H           1.30421        -1.57875        -0.01079
H           1.66824        -0.50243        -1.41479
H           2.06015        -0.07532         0.15791
H           2.88074        -2.21321         1.31299
H           5.28473        -0.29137         0.68355
H           7.13830        -3.74844         2.25811
H           9.59134        -1.43106         2.17373
H          12.06370        -2.30921         1.78462
H          11.98437        -4.71085         0.70892
H           9.81983        -6.32010        -0.09928
H           7.31876        -5.34397         1.14621
H           6.68320        -6.05693        -1.39804

