%chk=CC1dCCdCCdCqOrCdCNCCC1dO.chk
%NProcShared=20
# opt freq b3lyp/6-31g(2df,p)

Title Card Required 

0  1
C           2.62176        -0.17445        -0.15022
C           4.94604        -0.31538        -0.65225
C           3.44996        -1.01051        -0.82288
C           4.78455        -1.32058        -0.92125
C           5.38635        -2.11137        -1.68109
C           6.68148        -2.41690        -1.73382
C           7.35096        -2.99319        -2.55818
O           6.82087        -3.84008        -3.27126
C           8.56983        -3.16764        -2.15141
C           9.31371        -3.72971        -3.06809
N          10.32038        -3.80498        -2.16055
C          10.95409        -3.49008        -3.31069
C           9.58196        -1.80431        -2.23315
C           7.42777        -0.81800        -1.28833
O           6.83677         0.02001        -0.03418
H           1.09123        -0.78077        -0.57623
H           1.17182         0.70530        -0.27106
H           1.20747        -0.28332         0.84050
H           2.70895        -1.70882        -1.35016
H           5.97376        -1.30461        -0.50480
H           4.76382        -2.62185        -2.18937
H           7.87426        -2.13348        -1.27048
H           5.90379        -3.67935        -3.10190
H           9.08467        -2.04614        -0.97756
H           9.18034        -4.44676        -3.79691
H          11.01751        -2.47197        -1.58644
H          11.56374        -4.18502        -4.65955
H          11.55211        -5.05637        -3.45721
H          11.02475        -2.26360        -3.05751
H          11.20665        -2.82246        -2.53740

