%chk=Cc1ncccncqdOrccc2c1CdC2.chk
%NProcShared=20
# opt freq b3lyp/6-31g(2df,p)

Title Card Required 

0  1
C           4.06848         1.05955         0.96427
C           6.60499         1.66379         1.48351
N           4.77956         1.59297         1.41298
C           5.67106         0.81918         0.75900
C           5.29320         2.21060         1.93055
C           7.53573         2.36371         2.05674
N           7.14190         3.22246         2.78730
C           7.88166         2.32943         2.02135
O           9.29953         1.59412         1.41215
C           8.86129         3.91235         3.36543
C          10.30147         2.89071         2.50836
C          10.52438         3.78486         3.26722
C           9.03976         2.77841         2.42437
C          10.59267         4.22283         3.62468
C          12.36464         4.21112         3.62099
H           2.72051         0.17947         0.22002
H           2.43600         1.01365         0.27332
H           2.43577         0.37232         1.03326
H           5.15109         0.00771         0.07498
H           4.65825         2.79773         2.42893
H           7.62745         1.00609         0.91663
H           8.87216         4.73783         4.06603
H          11.56116         2.87798         2.49691
H          11.98557         5.06230         4.34277
H          13.72272         3.87563         3.33904

