%chk=Cc1nc2nqn1rCdCCdCC1dCqCdNCdC2rCNdN1.chk
%NProcShared=20
# opt freq b3lyp/6-31g(2df,p)

Title Card Required 

0  1
C           1.49210         0.12655         0.09558
C           3.02437        -0.14736         0.19434
N           4.20006         0.42771         0.85969
C           5.17939        -0.55987         0.80448
N           4.67004        -1.39479        -0.13469
N           3.33499        -1.35561        -0.25025
C           5.45799        -2.36368        -0.65264
C           5.02540        -3.57806        -0.55016
C           6.01361        -4.58290        -0.62862
C           5.72544        -5.79412        -0.24810
C           6.81043        -6.64735         0.01407
C           7.85502        -6.35068         0.79603
C           8.08474        -4.83406         1.58796
N           7.31920        -3.71307         1.43271
C           7.36068        -2.24253         1.77438
C           6.61642        -1.01827         1.43429
C           8.67522        -7.65023         0.58018
N           7.87774        -8.43598        -0.45261
N           6.81787        -7.82001        -0.68668
H           1.08952         1.14471         0.03665
H           0.95941        -0.40020         0.90397
H           1.06218        -0.37795        -0.80614
H           6.50908        -2.07651        -0.76919
H           4.04612        -3.79550        -0.10655
H           7.05105        -4.23585        -0.74249
H           4.71389        -6.13254        -0.05673
H           9.00796        -4.92316         2.22117
H           8.20245        -2.03232         2.45403
H           7.28112        -0.13326         1.36540
H           8.72370        -8.35277         1.42258
H           9.66236        -7.54468         0.12271

