%chk=CCc1cnc2cqCrccncc1CdCCdCCdC2.chk
%NProcShared=20
# opt freq b3lyp/6-31g(2df,p)

Title Card Required 

0  1
C           1.59409        -0.13198        -0.02339
C           3.71944         0.00931        -0.02123
C           5.94909         0.00746        -0.62159
C           4.45452        -1.27700        -1.10214
N           4.73557        -2.52492        -1.72199
C           6.06126        -2.99250        -1.97986
C           6.51672        -3.97482        -2.65867
C           5.71122        -4.87183        -3.28426
C           7.76859        -4.27483        -2.86802
C           8.71528        -4.92845        -3.33664
N           9.60069        -3.65797        -2.46587
C           9.34941        -2.11235        -1.54459
C           7.82824        -0.29101        -0.87828
C           8.22862         1.23602         0.55593
C           8.61423         2.13812         1.52483
C           7.07751         1.13005         1.01561
C           7.30669        -0.33546         0.84195
C           6.73773        -1.74412        -0.36900
C           7.07690        -2.33535        -1.47622
H           0.83929         0.72161         0.60561
H           0.83622        -0.99398         0.46711
H           0.83019        -0.00182        -0.96214
H           3.18741        -0.17773         1.11200
H           3.16733         0.90046        -0.42380
H           4.80922        -1.23170        -0.02625
H           4.73505        -4.53291        -3.04744
H           5.92583        -5.84314        -2.87104
H           5.92589        -4.82205        -4.33781
H           8.11920        -3.51115        -2.33337
H           8.17321        -5.85420        -3.96563
H           9.94959        -3.37646        -2.28559
H           7.60536         2.35324         1.66188
H           9.66339         2.01226         1.52630
H           6.10131         1.53929         1.16200
H           8.84417        -0.12187         0.37498
H           5.96176        -1.57132        -0.99741
H           7.92421        -2.06741        -1.27596

