%chk=CCC1CCdc2cncnc2dNCdC2CdC1C2.chk
%NProcShared=20
# opt freq b3lyp/6-31g(2df,p)

Title Card Required 

0  1
C           1.01665        -0.24792         0.21205
C           2.41924        -0.62995         0.63743
C           2.96944        -1.44750         2.09980
C           4.41369        -0.96778         1.43617
C           5.41861        -1.37399         2.34197
C           6.66983        -1.57724         2.61446
C           7.62519        -1.06124         1.66190
N           8.87984        -1.15490         1.89517
C           9.22665        -1.82813         3.04411
N           8.45837        -2.35384         3.95142
C           7.10181        -2.18813         3.92845
N           6.39637        -2.51746         5.00847
C           5.03073        -2.23673         4.93023
C           3.77117        -2.56695         5.41767
C           3.40168        -3.77243         4.62791
C           2.80117        -2.78387         3.52182
C           2.11198        -2.51990         4.99413
H           1.02058         0.33048        -0.73931
H           0.54906         0.41917         0.93688
H           0.45907        -1.15219         0.01305
H           2.86214         0.40943         0.64883
H           2.88913        -1.06327        -0.26529
H           1.93998        -1.13901         2.37901
H           4.57583         0.12873         1.36384
H           4.63798        -1.42264         0.45581
H           4.73756        -1.39203         3.12422
H           7.21884        -0.53108         0.77517
H          10.30848        -1.91362         3.19421
H           4.92285        -2.69881         3.96825
H           3.91774        -4.45749         5.34725
H           1.53832        -1.72911         5.46858
H           1.41598        -3.40938         5.17337

