%chk=CCC1dCC2dCCdCCqNrdCCdCC2dC1.chk
%NProcShared=20
# opt freq b3lyp/6-31g(2df,p)

Title Card Required 

0  1
C           1.05128         0.10176         0.04820
C           2.57891         0.20445         0.01216
C           3.15780         0.99593        -1.19974
C           3.66555         0.28689        -2.17802
C           3.67381         1.18605        -3.25736
C           3.31080         1.04089        -4.50278
C           3.98256        -0.16229        -4.81350
C           4.17646        -0.12779        -6.11353
C           5.02550        -1.13254        -6.66113
N           5.49355        -2.23140        -5.92739
C           5.83047        -0.24580        -7.29369
C           6.19240         1.07289        -6.15164
C           5.55219         1.93499        -4.68943
C           4.47515         2.34840        -3.28695
C           3.49965         2.39492        -1.91822
H           0.68884        -0.52823         0.87815
H           0.66362        -0.33504        -0.87915
H           0.63747         1.10043         0.17447
H           2.91618        -0.86245        -0.05110
H           2.94251         0.52670         0.99356
H           3.83953        -0.73801        -2.31423
H           3.38430         1.95734        -5.20575
H           4.57614        -0.83325        -4.14708
H           4.20565         0.97923        -6.61898
H           5.20139        -2.41608        -4.96843
H           5.90961        -3.02165        -6.41318
H           6.03561        -0.02344        -8.42792
H           6.87307         0.05760        -6.65711
H           4.98975         2.93045        -4.87911
H           2.85339         3.04863        -1.15890

