%chk=CCC1CCdCCdCCdCCdCCdCCdCSCdC1CtN.chk
%NProcShared=20
# opt freq b3lyp/6-31g(2df,p)

Title Card Required 

0  1
C           0.93587         0.00891        -0.07190
C           2.44246         0.02514        -0.06683
C           2.95448         1.43714        -0.22064
C           4.46919         1.44064        -0.23086
C           5.01654         2.74260        -0.50529
C           6.33042         3.09333        -0.47034
C           6.86261         4.41961        -0.75552
C           8.18230         4.65831        -0.71339
C           8.77924         5.87474        -1.23446
C          10.03390         6.34096        -0.96372
C          10.48249         7.59470        -1.61896
C          11.82271         7.73217        -1.20224
C          12.24446         8.90044        -1.87513
C          13.50286         9.11737        -1.38754
C          11.97023         9.77468        -0.55994
C          10.12481         8.31260        -0.04350
S           7.34234         6.22297         0.41418
C           4.62301         4.08851         0.75407
C           2.44749         2.29662         0.92375
C           0.95309         2.46185         1.14701
N          -0.28665         2.59892         1.33222
H           0.56653        -0.99176         0.04879
H           0.56539         0.42424        -0.99851
H           0.56019         0.59226         0.74532
H           2.80727        -0.58634        -0.88229
H           2.80674        -0.38846         0.86608
H           2.59333         1.84996        -1.16003
H           4.83313         0.83572        -1.04490
H           4.83613         1.03822         0.70411
H           4.25099         3.58998        -0.60900
H           7.01122         2.31487        -0.32667
H           6.14424         5.31922        -0.75031
H           8.86217         3.96957        -0.51245
H           7.85149         6.93626        -1.25362
H          10.72709         5.63188        -0.69567
H           9.70770         8.70107        -1.35301
H          12.59682         7.25363        -0.86588
H          11.35032        10.29035        -1.57752
H          14.43775         8.96855        -1.06585
H          13.17079        11.44362        -1.23833
H          11.89234         9.46871        -0.47896
H           6.29887         4.94528         0.71189

