%chk=CCC1dc2cqNrcccccc3cqc2CdCCdCCdC1rNCd3.chk
%NProcShared=20
# opt freq b3lyp/6-31g(2df,p)

Title Card Required 

0  1
C           0.96096        -0.08219         0.04203
C           2.55802        -0.05781         0.30209
C           4.14119        -0.20234        -1.20446
C           5.79403        -0.29259        -2.18542
C           4.75366        -0.33669        -3.22273
N           3.79801        -0.47174        -4.05408
C           5.87310        -0.39030        -3.55673
C           6.39218        -0.51329        -4.78056
C           7.60795        -0.53961        -5.11083
C           8.19818        -0.63358        -6.31320
C           9.60225        -0.48286        -5.32096
C           9.41566        -0.84205        -6.87661
C           9.31261        -0.53616        -4.83553
C           7.90589        -0.37511        -3.06663
C           6.81912        -0.18059        -1.04632
C           6.21307        -0.01671         0.76496
C           5.11506         0.14031         2.52778
C           5.64919         0.25737         3.84123
C           4.35634         0.12719         2.38476
C           3.78243        -0.03110         0.61232
N          10.43184        -0.67239        -6.68669
C           9.83934        -0.76444        -8.17997
H           0.59023         0.00927         1.06579
H           0.60713        -1.01381        -0.38415
H           0.60708         0.75896        -0.54262
H           2.56988        -1.24821         0.75032
H           2.56985         1.19118         0.53225
H           2.84932        -0.43321        -3.89013
H           4.15429        -0.53393        -5.01754
H           6.68468        -0.44185        -3.88775
H           5.88508        -0.58396        -5.57222
H           8.72574        -0.42732        -3.87098
H           7.75038        -0.73876        -7.23245
H          11.00059        -0.55198        -5.33147
H           5.52617        -0.09416        -0.09202
H           6.81574         0.06477         1.68909
H           3.68154         0.23606         3.60285
H           6.92091         0.28185         4.11514
H           4.73547         0.27804         4.07152
H           3.02644        -0.17014        -0.94143
H          11.47309        -0.78006        -7.79297
H           8.74833        -0.90036        -9.08143

