%chk=CCC1dCCdCCdCCdCCdCCdCCdCCdN1.chk
%NProcShared=20
# opt freq b3lyp/6-31g(2df,p)

Title Card Required 

0  1
C           2.20097         0.41203         0.71055
C           4.32783         1.25588         2.04445
C           6.13597         2.47243         3.96748
C           5.42309         1.42991         2.31955
C           5.06533         2.01834         3.24969
C           6.64019         1.67123         2.70101
C           7.52733         2.69673         4.32204
C           8.60470         2.65310         4.25308
C           9.30859         3.25926         5.21125
C          10.32889         3.34985         5.35444
C          10.42031         3.86253         6.16485
C          11.85827         4.16009         6.63521
C          11.81791         4.70435         7.49555
C          13.49377         5.22246         8.31452
C          13.86195         6.04880         9.62074
C          12.52414         5.32605         8.47828
C          10.02725         4.50417         7.17911
N           8.10729         3.60492         5.75763
H           0.99499        -0.40215        -0.57644
H           0.80636         1.02548         0.05427
H           0.80636        -0.44377         0.98374
H           3.50986         0.78792         0.29544
H           3.50986        -0.12409         0.87240
H           5.20529         0.52900         0.89546
H           4.12840         2.15582         3.46701
H           7.14115         1.26157         2.05344
H           6.36804         3.18254         5.08997
H           8.86698         2.21383         3.55871
H           8.37873         4.17197         6.65399
H          10.83636         3.07415         4.91864
H           9.04305         4.68607         7.46664
H          12.65454         3.99200         6.36950
H          11.07055         5.71056         9.08608
H          14.43800         4.90475         7.81232
H          13.32178         6.64494        10.56309
H          14.54351         5.62005         8.94301
H          11.56578         5.29735         8.43291

