%chk=CCC1dCCdCCdCCdCCdCCCNCCdN1.chk
%NProcShared=20
# opt freq b3lyp/6-31g(2df,p)

Title Card Required 

0  1
C           1.98264         0.05206         0.70072
C           4.20532         0.29265         2.18388
C           6.20332         0.69668         4.50080
C           5.21059         0.34452         2.56940
C           5.00792         0.49125         3.58808
C           6.73522         0.41074         3.12564
C           7.38256         0.71370         5.17100
C           8.49745         0.70116         5.05100
C           9.58895         0.96951         6.89547
C          10.68670         0.92121         6.52792
C           9.81447         0.85422         7.25914
C          11.82015         1.08018         7.85982
C          11.37910         1.07806         9.47859
C          13.71865         1.33148         9.47740
N          13.72611         1.33922        10.88523
C          13.13402         1.49577         9.44818
C          10.45522         1.44827         8.23685
N           8.28941         1.08645         6.47657
H           0.78853        -0.18079        -0.80885
H           0.70508         0.90222         0.47406
H           0.70515        -0.83032         0.73947
H           3.31004         0.60181         0.31966
H           3.31154        -0.58512         0.50433
H           5.13174         0.09564         0.98927
H           4.13689         0.55648         4.00650
H           7.04614         0.30866         2.38103
H           6.13367         0.87390         6.08521
H           8.81039         0.59133         4.23189
H           7.92716         1.08702         7.67430
H          10.64025         0.82804         5.76451
H           9.46976         1.28627         8.98990
H          12.65210         1.08412         7.43392
H          11.85537         0.54897        10.47089
H          11.76233         2.61075        10.15875
H          14.24268         2.41242         9.01110
H          14.20847         0.33955         9.36614
H          13.93574         0.88157        11.74715
H          15.07788         2.10164        10.18628
H          15.05765         1.01574        10.33781
H          12.09749         1.69945         9.85603

