%chk=CCC1dCNqC2dCCdCCdCCdCCdCCdC2rC[C]1.chk
%NProcShared=20
# opt freq b3lyp/6-31g(2df,p)

Title Card Required 

0  1
C           0.97667         0.08107         0.04420
C           2.49150         0.08363         0.00328
C           3.05569         0.42842        -1.50851
C           3.57984        -0.41545        -2.97279
N           4.35565        -0.16323        -4.90278
C           5.30161        -0.76103        -6.86808
C           4.69756         0.47779        -6.04693
C           5.33918         0.06070        -7.21920
C           5.57010         0.82690        -8.18433
C           6.15139         0.63942        -9.31259
C           6.39019         1.23211       -10.28524
C           7.16756         0.60698       -11.00488
C           7.31105         1.22198       -12.29330
C           8.29604         0.16137       -12.20436
C           7.73446         0.21410       -13.27569
C           6.89195        -0.89749       -11.36944
C           6.25993        -1.15863        -9.27325
C           3.42570         1.41992        -3.74008
C           3.20213         1.73954        -1.93647
H           0.60255        -0.17126         1.03541
H           0.59843        -0.64981        -0.66412
H           0.59822         1.06179        -0.22827
H           2.84708        -0.89883         0.32051
H           2.84800         0.80754         0.75536
H           3.23406        -1.46930        -2.25418
H           4.35849         1.49727        -5.87655
H           5.94010        -0.72552        -7.98457
H           5.29232         1.72317        -8.09182
H           6.81002        -0.28789       -10.04249
H           6.23926         2.08131       -10.41875
H           7.46297        -1.19484       -10.36511
H           7.26198         2.15777       -12.73674
H           8.67962        -1.12989       -13.20085
H           8.15763         1.48663       -14.42349
H           7.49500        -0.75390       -13.08633
H           6.11502        -1.99215        -7.83490
H           2.23585         1.82045        -3.83936
H           3.84632         2.43152        -3.90164

