%chk=CCC1CCdCdCCd[SH]CqSrSS1.chk
%NProcShared=20
# opt freq b3lyp/6-31g(2df,p)

Title Card Required 

0  1
C           1.14606        -0.27121         0.16599
C           2.67603        -0.62977         0.30926
C           3.62097        -1.44799         1.67459
C           4.80014        -0.64092         1.22813
C           5.44796        -0.41847         2.49098
C           6.73320        -0.64815         2.46441
C           7.90807        -1.04539         2.52485
C           8.29961        -1.21761         3.88392
S           9.76942        -2.17691         4.11737
C           8.65644        -2.81634         5.42058
S           9.30122        -4.08751         6.61008
S           6.75434        -3.57986         4.34133
S           4.88302        -3.15454         2.66783
H           0.95252         0.38535        -0.72340
H           0.72979         0.34198         0.97962
H           0.53863        -1.15079        -0.01629
H           2.98736         0.45178         0.36842
H           3.06331        -0.88603        -0.69107
H           3.04129        -1.08572         2.52237
H           4.66597         0.39029         0.90136
H           5.25258        -1.16531         0.36229
H           4.86934        -0.67918         3.38483
H           8.36689        -1.68820         1.77610
H           7.51639        -1.05067         4.68443
H          10.45971        -1.05954         4.34884
H           8.72714        -1.95272         6.15493
H           9.71261        -5.04047         5.78293

