%chk=CCC1dC2OCCdCCdCCdCqCrCdC2CdC1.chk
%NProcShared=20
# opt freq b3lyp/6-31g(2df,p)

Title Card Required 

0  1
C           1.07233         0.07257         0.00828
C           2.56102         0.08992         0.03696
C           3.07841         1.15822        -0.74163
C           3.82269         1.05117        -1.86626
O           4.25275        -0.05436        -2.26219
C           4.16024        -1.22070        -1.83190
C           4.75456        -2.22513        -2.48565
C           4.64133        -3.35374        -2.06719
C           5.65649        -3.82167        -2.86208
C           5.55001        -5.18386        -2.93110
C           6.24224        -5.54971        -4.08639
C           5.91639        -3.95873        -4.59563
C           6.47247        -6.30682        -4.38865
C           5.42097        -1.51159        -4.10517
C           4.76419         0.28717        -3.29598
C           3.89602         2.13293        -2.25049
C           2.90901         2.47942        -0.78137
H           0.70322        -0.78480         0.56243
H           0.70051         0.01718        -1.01531
H           0.69505         0.98103         0.46938
H           2.90427        -0.83156        -0.38245
H           2.95184         0.12729         1.03615
H           3.15209        -1.37405        -1.98370
H           4.70604        -1.12058        -0.96522
H           5.38827        -2.70089        -3.54240
H           4.30970        -3.96389        -1.42118
H           6.42885        -2.79550        -4.15879
H           5.20026        -6.02516        -2.30770
H           7.14602        -5.71392        -5.41130
H           6.64847        -8.00107        -4.13863
H           7.57929        -7.59702        -4.51647
H           6.54812        -7.78432        -5.18264
H           5.33162         0.01648        -4.03335
H           3.40492         3.70392        -1.84654
H           2.18258         3.00452         0.23232

