%chk=CCCCC1dCd[SH]C1dCCdC1SC1C.chk
%NProcShared=20
# opt freq b3lyp/6-31g(2df,p)

Title Card Required 

0  1
C           0.96901        -0.05488         0.04966
C           2.47255        -0.12131        -0.03315
C           3.01596         0.73136         1.04892
C           4.50642         0.71311         1.03036
C           5.08948         1.41580         2.13415
C           6.14936         1.96381         2.50737
S           6.75147         2.94746         3.44547
C           4.64609         2.40681         3.27549
C           3.25304         2.72401         3.35988
C           1.94218         3.18634         4.04651
C           0.59931         2.97260         3.83122
S          -0.54180         2.18256         2.88796
C          -0.78016         3.31572         4.23662
C          -1.49916         4.59747         3.89496
H           0.55481        -0.67752        -0.73756
H           0.61500         0.97610        -0.07308
H           0.61487        -0.41157         1.02458
H           2.84475         0.27200        -0.98167
H           2.84450        -1.13469         0.13015
H           2.65626         0.32637         2.00785
H           2.65879         1.75756         0.86669
H           4.91279         1.08778         0.08830
H           4.90144        -0.29409         1.15835
H           7.75839         2.84548         2.44019
H           2.74081         2.07139         2.69277
H           2.17129         3.79881         4.88768
H          -1.30240         2.85703         5.07815
H          -1.17006         5.05147         2.95548
H          -1.33188         5.31365         4.70687
H          -2.59834         4.48489         3.83176

