%chk=CCCdNCdCN1CNN[C]CdC[C]qNrC1.chk
%NProcShared=20
# opt freq b3lyp/6-31g(2df,p)

Title Card Required 

0  2
C           0.98607         0.04281         0.06946
C           2.50727         0.02161         0.09019
C           3.05381        -1.00563         1.06085
N           4.33706        -1.16693         1.20636
C           4.73325        -2.13543         2.09701
C           6.02418        -2.37988         2.40927
N           6.55718        -3.34912         3.26743
C           5.96543        -4.69295         3.42524
N           6.31183        -5.85507         2.58628
N           6.98058        -5.51235         1.34886
C           8.33871        -5.35768         1.82848
C           9.26369        -5.55002         2.87404
C           9.40963        -4.70087         3.90189
C           8.98318        -3.31947         4.01244
N          10.00670        -2.47925         4.62085
C           7.53009        -2.97956         4.31847
H           0.61931         0.79184        -0.64148
H           0.57949         0.28753         1.05638
H           0.57959        -0.93003        -0.22665
H           2.88463         1.00934         0.37463
H           2.88411        -0.20839        -0.91209
H           2.31245        -1.59860         1.62575
H           3.96929        -2.71485         2.60540
H           6.80026        -1.75804         1.96501
H           4.87789        -4.59948         3.38159
H           6.15835        -5.03249         4.45085
H           5.53130        -6.49169         2.47429
H           6.60962        -4.65308         0.93412
H           9.60692        -6.57004         2.98681
H           9.89055        -5.10170         4.79060
H          10.93780        -2.77187         4.31907
H          10.01314        -2.64236         5.63077
H           7.44760        -1.90351         4.53115
H           7.27235        -3.46653         5.26820

