%chk=CCCdc1cccc2cqcq[SH]qCrNrccc1rdCNdC2.chk
%NProcShared=20
# opt freq b3lyp/6-31g(2df,p)

Title Card Required 

0  1
C           1.05227         0.02406         0.08948
C           2.56558         0.03632         0.10801
C           3.07903         0.82072         1.29561
C           4.37230         1.01660         1.59162
C           4.91721         1.89227         2.92187
C           6.76158         1.80756         2.79036
C           7.30300         2.45700         3.77270
C           8.35600         2.81137         4.30785
C           8.29325         3.53969         5.40424
C           7.47873         4.11166         6.30815
S           8.29482         5.02102         7.65044
C           7.74357         4.27140         9.16655
N          10.04338         5.03573         7.69822
C           6.05151         3.92530         5.99914
C           4.92213         3.02341         4.62512
C           5.08487         1.97938         3.04868
C           9.51680         3.48062         5.32352
N          10.70438         3.44070         5.28785
C           9.77952         2.64732         4.06661
H           0.67643        -0.54028        -0.76486
H           0.67073         1.04378         0.02622
H           0.67073        -0.43429         1.00258
H           2.92198         0.48050        -0.82496
H           2.92197        -0.99613         0.15044
H           2.36361         1.25890         1.95881
H           3.62943         2.24557         3.45261
H           7.16016         1.29531         2.01381
H           6.56129         2.77103         4.24737
H           7.88987         6.30172         7.59583
H           8.10533         3.24701         9.24636
H           6.65621         4.27015         9.18695
H           8.10401         4.83357        10.03410
H          10.44021         4.08911         7.71677
H          10.44424         5.55906         8.48045
H           6.13657         3.41512         5.22052
H           4.85821         3.80711         5.81958
H           5.53690         1.11633         1.74242
H          10.84734         3.21487         4.90473
H           9.65944         1.91089         2.94708

