%chk=CCCqCNCC1dCCdCCdCNdS1NNrNC.chk
%NProcShared=20
# opt freq b3lyp/6-31g(2df,p)

Title Card Required 

0  1
C           1.12608        -0.29507         0.03674
C           2.61161         0.02444         0.05741
C           3.04418         1.42817        -0.46982
C           2.60736         2.63327         0.43560
N           1.19526         2.81876         0.45206
C           0.56517         3.86830         1.19737
C          -0.95138         3.83480         1.02131
C          -1.66226         4.87604         1.51823
C          -3.10746         4.89177         1.64311
C          -3.76471         4.01960         2.43320
C          -3.10935         2.99409         3.21240
C          -2.37342         1.96939         2.69674
N          -1.92238         1.55606         1.48667
S          -2.02837         2.49594         0.30714
N          -1.03155         1.67548        -0.68924
N          -0.27598         2.36891        -1.67130
N           4.53143         1.40858        -0.58917
C           5.05318         2.62853        -1.19542
H           0.91212        -1.34038         0.27048
H           0.72100        -0.10227        -0.95879
H           0.58915         0.24907         0.81052
H           3.08049        -0.75078        -0.56259
H           2.97606        -0.11124         1.08028
H           2.62821         1.55032        -1.48195
H           2.98688         3.56068         0.00094
H           3.03721         2.51982         1.43434
H           0.63927         1.98835         0.66385
H           0.93398         4.83303         0.83004
H           0.82185         3.78835         2.26226
H          -1.14925         5.71170         1.97908
H          -3.65201         5.55130         0.98250
H          -4.84783         3.98955         2.43865
H          -3.20391         3.07811         4.28809
H          -2.03249         1.31987         3.50462
H          -1.25059         0.70296        -0.90065
H           0.45435         2.86555        -1.13072
H          -0.82912         3.11503        -2.07365
H           4.79127         0.61335        -1.17161
H           4.84210         3.52001        -0.59931
H           4.66083         2.77464        -2.20636
H           6.14311         2.57302        -1.24617

