%chk=CCCqdOrC1dCCdC1CNqOrCCCdCNNCdNO.chk
%NProcShared=20
# opt freq b3lyp/6-31g(2df,p)

Title Card Required 

0  1
C           0.89733        -0.13067        -0.07211
C           2.40263        -0.18826        -0.11713
C           2.99697        -1.28414        -0.99068
O           2.21432        -2.03637        -1.59055
C           4.54157        -1.42995        -1.10146
C           5.00996        -2.51808        -1.88803
C           6.48944        -2.65147        -2.07233
C           5.52932        -0.52551        -0.38261
C           5.02266         0.59638         0.50906
N           6.18710         1.30225         1.08956
O           6.86975         1.93498        -0.03717
C           5.71058         2.41227         1.93936
C           6.86462         3.20138         2.58145
C           6.36481         4.31590         3.47201
C           7.17789         5.15218         4.13313
N           6.80918         6.18965         4.95492
N           7.64303         7.03344         5.62522
C           7.27465         8.06538         6.44537
N           8.11988         8.83420         7.05642
O           7.42978         9.78876         7.81512
H           0.58579         0.69147         0.58270
H           0.49702        -1.06484         0.32616
H           0.49630         0.04604        -1.07154
H           2.71013        -0.35521         0.91577
H           2.71813         0.78197        -0.50283
H           4.32321        -3.19247        -2.42836
H           7.33826        -3.02316        -2.60836
H           4.43397         0.19908         1.33231
H           4.46525         1.32781        -0.07651
H           7.37362         1.18519        -0.41394
H           5.08372         1.99870         2.74138
H           5.07611         3.09420         1.35676
H           7.49462         3.63022         1.79314
H           7.48155         2.51101         3.16998
H           5.28910         4.43572         3.56552
H           8.25657         5.03837         4.04060
H           5.80319         6.32576         5.06313
H           8.64730         6.90825         5.52552
H           6.18161         8.19256         6.54646
H           8.15769        10.29855         8.22038

