%chk=CCCqCNCCNrdNC1d[SH]CCdCC1.chk
%NProcShared=20
# opt freq b3lyp/6-31g(2df,p)

Title Card Required 

0  1
C           1.01085         0.42346        -0.04450
C           2.49006         0.11141         0.08965
C           2.92454        -1.22936         0.72580
C           1.90768        -2.29713         1.18163
N           0.52135        -1.97810         0.93294
C          -0.39339        -2.97438         1.45579
C          -1.80175        -2.42969         1.19862
N          -2.79845        -3.40565         1.60997
N           4.22119        -1.40488         0.83711
C           4.74242        -2.59464         1.30131
S           4.16239        -4.10052         0.53968
C           4.90678        -5.38989         1.48251
C           5.69555        -5.02544         2.68447
C           6.14639        -3.82184         3.02100
C           5.91504        -2.55601         2.25563
H           0.81310         1.43274        -0.40400
H           0.51022         0.33785         0.92620
H           0.54700        -0.24287        -0.78047
H           2.95067         0.91147         0.68064
H           2.93892         0.15668        -0.91143
H           2.10431        -2.52535         2.23457
H           2.02890        -3.17718         0.56288
H           0.39959        -1.99693        -0.08045
H          -0.23299        -3.14469         2.52535
H          -0.24916        -3.92192         0.92127
H          -1.93238        -2.20513         0.13060
H          -1.94556        -1.48691         1.74139
H          -2.67468        -4.25280         1.05794
H          -3.72379        -3.04373         1.39187
H           4.71994        -4.08981        -0.64230
H           5.52040        -5.96346         0.78776
H           4.07610        -6.02917         1.80269
H           5.93214        -5.87298         3.33097
H           6.76320        -3.73595         3.91816
H           6.82356        -2.30432         1.69659
H           5.74395        -1.74478         2.97331

