%chk=CCdC1CdC2CdCNdCqCNrOCdC2CdCCdCC1.chk
%NProcShared=20
# opt freq b3lyp/6-31g(2df,p)

Title Card Required 

0  1
C           1.01396         0.08675        -0.00978
C           2.52438        -0.06270        -0.27549
C           3.03495        -0.54741        -1.47983
C           4.73952        -0.60077        -1.62704
C           5.95289        -1.01284        -2.27187
C           7.22698        -0.26113        -2.00831
C           7.88523         0.05699        -3.09393
N           9.25156        -0.15074        -3.47688
C           9.34734        -1.13182        -4.32083
C           8.75878        -1.73739        -5.91593
N           7.28274        -2.04162        -6.00471
O           9.27157        -2.26090        -3.54477
C           7.75451        -2.71072        -3.63886
C           6.32150        -2.11379        -3.46886
C           4.67971        -2.23343        -4.02733
C           3.46685        -2.41459        -4.67228
C           2.24483        -1.81439        -4.12898
C           1.13583        -1.07024        -4.18393
C           1.56286        -0.57455        -2.54751
H           0.73981         0.47698         0.97962
H           0.53608        -0.89783        -0.08565
H           0.55506         0.76626        -0.73880
H           3.10983         0.25926         0.58929
H           5.03161        -0.10804        -0.68305
H           7.56363        -0.44671        -0.95493
H           7.36506         0.04281        -4.05994
H           9.19434        -2.74779        -6.09741
H           9.15114        -1.18227        -6.76786
H           7.12530        -2.91905        -5.49526
H           6.85757        -2.39024        -6.86995
H           8.42520        -3.46055        -4.28240
H           4.49888        -1.12022        -3.87274
H           3.31955        -2.40887        -5.75537
H           1.56526        -2.54407        -3.61295
H           0.28310        -1.59497        -4.78388
H           2.26661         0.06893        -3.08596
H           1.45653        -1.57522        -2.05620

