%chk=CCdCNC1dC[SH]dCqNrCdCNdN1.chk
%NProcShared=20
# opt freq b3lyp/6-31g(2df,p)

Title Card Required 

0  1
C           0.95003         0.02283         0.05308
C           2.44027        -0.00191         0.04895
C           3.15373        -1.13378         0.16950
N           4.51287        -1.19716         0.24401
C           5.40222        -2.25795         0.35744
C           5.16113        -3.44907        -0.23890
S           6.48844        -4.62111        -0.50568
C           6.76787        -5.16990         1.16415
N           7.80004        -6.02925         1.35851
C           6.01031        -4.74655         2.34128
C           6.05807        -3.46279         2.72948
N           6.83516        -2.48152         2.15717
N           6.60996        -2.02736         1.00233
H           0.59277         1.05192        -0.05901
H           0.55972        -0.36307         1.00004
H           0.54736        -0.56584        -0.77581
H           2.94847         0.95387        -0.04017
H           2.64745        -2.08963         0.26912
H           5.00203        -0.30721         0.27307
H           4.20588        -3.63473        -0.71545
H           7.50174        -3.78219        -0.56541
H           8.39163        -6.27708         0.57040
H           8.10443        -6.35583         2.26706
H           5.40256        -5.48226         2.85254
H           5.48885        -3.15137         3.60162

