%chk=CCdC1CdCCdCCdCNdCCdCCdCNdC1.chk
%NProcShared=20
# opt freq b3lyp/6-31g(2df,p)

Title Card Required 

0  1
C           1.74054        -0.31182        -0.25184
C           3.88041        -0.95915        -1.01502
C           5.59549        -1.85963        -2.07665
C           4.94320        -0.82589        -0.85791
C           5.79326        -1.56206        -1.72583
C           7.23197        -1.51477        -1.67008
C           8.10447        -2.05786        -2.31035
C           9.28414        -2.18405        -2.45912
C           9.99719        -2.82983        -3.22047
N          11.27074        -2.83051        -3.22128
C          11.87583        -3.45352        -3.95578
C          13.56617        -3.64267        -4.17879
C          13.16700        -4.48648        -5.17360
C          14.31398        -4.38614        -5.05530
C          12.21106        -4.42343        -5.09927
N           9.76330        -3.79506        -4.35844
C           7.67723        -3.10554        -3.54553
H           0.79095         0.54641         0.75997
H           0.74519        -1.09114         0.18476
H           0.74519         0.24609        -0.94949
H           3.29427         0.15876         0.30295
H           5.36143        -0.21704        -0.14010
H           5.91187        -2.59338        -2.94172
H           7.52413        -0.95386        -1.00878
H           8.79087        -2.99724        -3.41784
H           9.77914        -1.70382        -1.89296
H           8.66025        -3.73655        -4.28947
H          10.94591        -4.43799        -5.11643
H          14.15057        -3.16045        -3.61027
H          13.08134        -5.45491        -6.31535
H          15.97642        -4.08358        -4.69860
H          13.96971        -5.08627        -5.88072
H           5.90209        -3.27865        -3.74962

