%chk=CCdC1CdCNdCCdNNdCqCrSS1.chk
%NProcShared=20
# opt freq b3lyp/6-31g(2df,p)

Title Card Required 

0  1
C           1.31903         0.14422        -0.09057
C           3.11074         0.80224        -0.30924
C           4.40917         1.89861        -0.64860
C           5.13121         0.88359        -0.33351
C           5.69652         1.95300        -0.70108
N           7.04818         1.72338        -0.62096
C           7.81212         2.66021        -0.93709
C           9.19018         2.46446        -0.87129
N           9.48514         3.60018        -1.25630
N          10.72092         4.01352        -1.39641
C          10.45904         5.21531        -1.80480
C          11.09461         6.57831        -2.26567
S           8.15125         5.45403        -1.88074
S           5.84540         4.00403        -1.40364
H           0.89439        -0.95273         0.28658
H           0.75458         0.15953        -1.03222
H           0.75619         0.73202         0.65617
H           3.26308        -0.53945         0.14759
H           5.37926        -0.05664        -0.01854
H           4.59400         3.15687        -1.11883
H           7.66366         3.77114        -1.31287
H          10.00260         1.84934        -0.66282
H          10.04810         6.76415        -2.32859
H          11.37148         6.84816        -3.30910
H          11.37147         7.42698        -1.60119

