%chk=CCN1NCdCCCdCC2dCNdCqCrCdCCdCC2C1NNC.chk
%NProcShared=20
# opt freq b3lyp/6-31g(2df,p)

Title Card Required 

0  1
C           1.10718        -0.07421        -0.06666
C           3.22721        -0.65722        -0.42717
N           5.10356        -1.84383        -1.18035
N           4.62475        -1.40494         0.06459
C           5.15747        -2.62627         0.03583
C           6.50347        -2.63507         0.08112
C           7.28076        -4.09154        -0.39926
C           8.67300        -3.68865        -0.46558
C           9.55568        -4.68412        -0.65090
C          10.92201        -4.50341        -0.43783
C          11.78619        -5.46088        -0.65481
N          13.06845        -5.22725        -0.11487
C          13.86204        -6.29208        -0.42726
C          13.71287        -7.59460        -1.15270
C          15.29907        -5.60844        -0.12344
C          15.98834        -6.76590        -0.62327
C          14.92201        -5.26260        -1.63251
C          12.74318        -4.58615        -1.86127
C          10.10451        -3.73537        -1.73553
C           7.19450        -2.90513        -1.75283
N           4.63475        -2.59570        -1.94652
N           2.07596        -2.46786        -2.40197
C          -0.22217        -2.33351        -2.62857
H           0.59031         1.02318         0.10733
H           0.56559        -0.61701         0.75360
H           0.52892        -0.26581        -0.95361
H           2.88139         0.30023         0.83877
H           2.86374         0.60074        -0.87190
H           4.90984        -0.44578        -0.10949
H           4.56075        -3.57352        -0.47595
H           6.97428        -1.67102        -0.25521
H           6.93567        -4.50827        -1.52885
H           6.90928        -4.68581         0.25046
H           9.03757        -2.64862        -0.42132
H           9.21962        -5.65652        -0.87946
H          11.57694        -6.38885        -1.01179
H          12.66954        -7.59503        -1.18366
H          14.10246        -8.20528        -0.37356
H          14.11153        -7.90508        -2.11875
H          16.08441        -4.64660        -0.55962
H          16.23897        -7.82567        -1.18616
H          16.83437        -5.56979        -1.24357
H          14.47417        -5.50684        -1.87863
H          11.24035        -2.83627        -0.84013
H           5.54304        -2.78328        -2.05167
H           3.07182        -1.93742        -1.60677
H           0.99154        -3.31067        -2.90063
H          -1.27160        -1.33892        -2.62189
H          -1.27816        -2.98094        -1.97681
H          -1.25935        -2.71686        -3.71160

