%chk=CCOCCdCCdCCdCCCdN.chk
%NProcShared=20
# opt freq b3lyp/6-31g(2df,p)

Title Card Required 

0  1
C           1.07267         0.05072         0.05372
C           2.58905         0.05815         0.05047
O           3.08225        -1.17219         0.58774
C           4.51232        -1.18148         0.59179
C           5.00969        -2.47887         1.15834
C           6.31992        -2.75987         1.28104
C           6.83388        -4.00220         1.82354
C           8.14715        -4.27022         1.94058
C           8.66302        -5.51310         2.48332
C           9.97614        -5.78251         2.60097
C          10.50174        -7.07561         3.16563
C          12.01726        -7.11129         3.18121
N          12.69964        -8.11946         3.62146
H           0.68257         0.98813        -0.35563
H           0.68620        -0.07515         1.07001
H           0.68620        -0.78028        -0.54473
H           2.95071         0.89514         0.65826
H           2.95071         0.18125        -0.97656
H           4.86909        -0.34785         1.20696
H           4.86909        -1.06607        -0.43779
H           4.25611        -3.19648         1.47170
H           7.05107        -2.02058         0.95821
H           6.09849        -4.73682         2.14434
H           8.87972        -3.53267         1.61851
H           7.93365        -6.25367         2.80671
H          10.69992        -5.03811         2.27590
H          10.15682        -7.92368         2.56364
H          10.15682        -7.21049         4.19686
H          12.56961        -6.23748         2.79964
H          12.08606        -8.87264         3.95036

