%chk=CCqCrC1dCSCqNrdCCdCCdCCdC1S.chk
%NProcShared=20
# opt freq b3lyp/6-31g(2df,p)

Title Card Required 

0  1
C           1.18412        -0.01558         0.05511
C           3.17721         0.28285         0.86081
C           3.11829         0.87853        -1.08555
C           4.64661         0.94012         2.62182
C           4.60869         0.44100         1.27674
S           5.56488         0.85278         2.36972
C           7.13938         0.96455         2.66057
N           7.70375         0.58948         1.66536
C           7.66093         1.49136         3.94779
C           8.43606         1.31189         3.55597
C           8.07921         2.12293         5.69820
C           9.87927         1.68492         4.59202
C          10.60409         2.14108         5.81682
C           8.82436         1.68742         4.77010
C           6.34924         1.49840         4.18978
S           3.73852         1.41038         3.77734
H           0.72172        -0.41026        -1.00787
H           0.68465         0.95033         0.10473
H           0.68554        -0.70784         0.72464
H           2.98947        -0.99016        -0.11643
H           2.71264         1.86541        -1.00705
H           2.70842         0.48079        -2.09816
H           4.16268         0.86099        -1.19219
H           5.22064         0.19154         0.60526
H           7.04514         0.35780         1.04533
H           8.61432         0.66130         1.85695
H           6.90948         1.93332         5.25027
H           9.52653         1.16991         3.21667
H           9.14489         2.35463         6.38459
H          11.53246         1.62532         4.43463
H          11.27808         2.63762         7.14337
H          10.51728         2.05531         5.59103
H           1.67629         1.16951         3.26788

