%chk=CCqCrNCCqdOrC1dCCdC2CdCC23CdS13.chk
%NProcShared=20
# opt freq b3lyp/6-31g(2df,p)

Title Card Required 

0  1
C           1.07067         0.00284         0.06828
C           2.59910        -0.03739         0.07899
C           3.06364        -1.48548        -0.10410
N           3.10288         0.81500        -0.99909
C           4.57183         0.87147        -1.03719
C           5.06922         1.73047        -2.20162
O           4.31253         2.37956        -2.93006
C           6.57005         1.84351        -2.38510
C           7.24994         0.68993        -2.37208
C           8.67368         0.51557        -2.40433
C           9.43967         1.50879        -2.76015
C          10.85835         1.74009        -2.89637
C          10.62701         3.07991        -2.95880
C           9.15710         2.85852        -3.42964
C           8.50324         3.96264        -2.96872
S           7.23056         3.47962        -2.11863
H           0.66699        -0.62879         0.86735
H           0.66873        -0.36553        -0.88289
H           0.69457         1.01947         0.22479
H           2.94842         0.34234         1.04729
H           2.74775        -1.87574        -1.07873
H           2.65314        -2.13023         0.67707
H           4.15173        -1.58195        -0.04030
H           2.73613         1.76684        -0.92395
H           4.95881        -0.13349        -1.19854
H           4.96374         1.28180        -0.10047
H           6.73531        -0.26448        -2.28014
H           9.09604        -0.46697        -2.19346
H          11.72252         1.09716        -2.81524
H          11.32981         3.90588        -3.06458
H           8.89715         4.98924        -3.05099

