%chk=CCqSCCdOrCqdCNrCCd[SH]S.chk
%NProcShared=20
# opt freq b3lyp/6-31g(2df,p)

Title Card Required 

0  1
C           1.11098        -0.34525         0.17311
C           2.61327        -0.10502         0.04009
S           3.29868        -1.33492        -1.16068
C           2.62146        -2.91408        -0.52723
C           3.08208        -4.03854        -1.41854
O           2.77189        -5.21763        -1.22014
C           2.97532         1.32945        -0.43797
C           2.06148         2.28510        -0.72997
N           0.70281         2.35494        -0.69864
C           4.49620         1.63411        -0.50565
C           4.86670         3.03716        -0.94163
S           6.57544         3.57444        -1.03201
S           6.33047         5.40513        -1.89818
H           0.82530        -1.32188         0.56110
H           0.62750        -0.24420        -0.80806
H           0.68838         0.36604         0.89140
H           3.07909        -0.27720         1.01908
H           1.52883        -2.91796        -0.56409
H           2.97531        -3.10072         0.49060
H           3.70301        -3.77304        -2.28814
H           2.37494         3.26507        -1.05647
H           0.10872         1.56382        -0.51800
H           0.23541         3.17489        -1.06648
H           4.99209         0.94982        -1.20485
H           4.94876         1.46478         0.48079
H           4.11450         3.76295        -1.24740
H           6.97705         2.89178        -2.08256
H           5.67763         6.04734        -0.91304

