%chk=CCSqdOrC1dCCdCqSrSC1.chk
%NProcShared=20
# opt freq b3lyp/6-31g(2df,p)

Title Card Required 

0  1
C           0.91877         0.06355        -0.00856
C           2.44322         0.04428        -0.01466
S           2.99191        -1.66816        -0.02538
O           2.57897        -2.29120        -1.32493
C           4.79824        -1.64215        -0.07456
C           5.53527        -0.52233        -0.06397
C           6.99448        -0.53394        -0.09230
C           7.77213        -1.63365        -0.09033
S           9.51698        -1.54661        -0.11699
S           7.14047        -3.23993        -0.03991
C           5.37116        -3.03149        -0.11900
H           0.54259         1.08910         0.03454
H           0.51748        -0.48225         0.85409
H           0.51124        -0.40929        -0.91018
H           2.81818         0.52841         0.89100
H           2.82133         0.56528        -0.89779
H           5.08815         0.46928        -0.04968
H           7.45566         0.45168        -0.11124
H           9.72637        -0.22870        -0.11851
H           4.96889        -3.59035         0.73289
H           5.02825        -3.52600        -1.03299

