%chk=CdC1CC2dNCdCNdCC2dCCdCCdCS1.chk
%NProcShared=20
# opt freq b3lyp/6-31g(2df,p)

Title Card Required 

0  1
C           0.81710         0.28099         0.00600
C           1.99031        -0.35850        -0.00432
C           3.23262        -1.07433        -0.02201
C           4.67557        -0.81326        -0.03114
N           4.99278         0.42291        -0.03031
C           6.27366         0.83932        -0.02419
C           7.42349         0.16126        -0.01347
N           7.74211        -1.16593        -0.01011
C           6.88676        -2.12099        -0.01758
C           5.44570        -2.10242        -0.03078
C           4.95145        -3.36422        -0.03818
C           3.61256        -3.74985        -0.07446
C           2.89860        -4.83724        -0.07937
C           1.48170        -4.71984        -0.08388
C           0.91257        -3.65282         0.08328
S           0.91221        -1.97361         0.11428
H          -0.12406        -0.26628        -0.05240
H           0.45432         1.27873         0.04488
H           3.15949        -1.55933        -1.06238
H           3.19286        -1.62882         0.98053
H           6.33059         1.92895        -0.02785
H           8.31313         0.78528        -0.00602
H           7.29655        -3.14353        -0.01572
H           5.51579        -4.27479        -0.02893
H           2.95032        -2.97614        -0.13223
H           3.36007        -5.78574        -0.03869
H           0.28167        -3.91576        -0.29347
H           0.34110        -5.05702         0.08553

