%chk=CdC1CdCCCNNdCCd[SH]CNN1CS.chk
%NProcShared=20
# opt freq b3lyp/6-31g(2df,p)

Title Card Required 

0  1
C           2.70759         0.23606         0.00019
C           4.59649         0.76865         0.02611
C           3.32648         1.32515         0.60761
C           4.67137         1.35604         0.73418
C           5.23792         2.57309         1.08798
C           6.66961         2.49862         1.08357
N           7.38239         3.57199         1.37564
N           8.47995         3.46734         1.89587
C           9.21708         4.43692         1.95674
C          10.60199         3.96855         2.39809
S          11.55780         5.68072         2.27977
C          11.02196         3.62342         0.98250
N           9.02448         2.21770         0.47810
N           6.88478         1.04635         0.04330
C           5.22222        -0.59076        -0.43744
S           4.18805        -2.71891        -1.03244
H           1.14580         0.64704         0.29032
H           1.30026        -0.59029        -0.19254
H           2.60835         2.08673         0.86358
H           5.79520         0.27370         0.68257
H           4.95225         2.60958         2.07115
H           4.95976         3.26241         0.35082
H           7.01892         2.52166        -0.33077
H           7.01967         1.41750         1.77849
H           6.87249         4.25557         1.71404
H           8.95169         5.41455         2.07337
H          11.32172         2.62506         1.99170
H          11.54697         5.89158         3.61976
H          12.59677         4.44865         1.01470
H          12.47802         4.04867         1.93419
H          10.03752         3.47213         0.60565
H           3.71308        -1.05006        -0.93611
H           3.77787        -1.35411        -0.05123
H           4.34104        -3.24321        -2.36077

