%chk=CdC1CdC2CdCCdNN2NdCCqCNrCCCCCdCdNC1.chk
%NProcShared=20
# opt freq b3lyp/6-31g(2df,p)

Title Card Required 

0  1
C           0.54497         0.20680         0.29977
C           1.37380        -0.52616        -0.43335
C           2.87831        -0.73058        -0.70584
C           4.25122        -0.80721        -0.75088
C           5.12820        -0.02233         0.08282
C           6.46705        -0.09744         0.03141
C           7.06927        -1.01438        -0.95446
N           6.39955        -1.75928        -1.76852
N           4.99536        -1.68907        -1.71334
N           4.50410        -2.55943        -2.70321
C           3.25206        -2.71715        -2.93222
C           2.51754        -3.62314        -3.81850
C           2.79191        -5.04130        -3.40906
N           4.18504        -5.27671        -3.60255
C           1.03493        -3.40344        -3.59415
C           0.37237        -4.31301        -4.60709
C          -0.99872        -4.08591        -4.34783
C          -2.21423        -4.60476        -4.87467
C          -2.79666        -3.48486        -3.61376
C          -1.96837        -2.61828        -2.66305
N          -1.34381        -1.86299        -1.88131
C           0.39702        -1.63825        -1.47778
H          -0.47590        -0.05235         0.01833
H           0.62294         0.94633         1.07798
H           2.67749        -1.61989        -1.17648
H           4.62862         0.60795         0.79545
H           7.11086         0.48460         0.67394
H           8.18232        -1.03637        -0.97280
H           2.46950        -2.17295        -2.50090
H           2.71986        -3.30688        -4.83920
H           2.24940        -5.73091        -4.04883
H           2.47376        -5.22540        -2.37000
H           4.45947        -4.95464        -4.52727
H           4.42132        -6.24219        -3.45425
H           0.72584        -2.34660        -3.73961
H           0.71506        -3.65940        -2.55757
H           0.48596        -5.36035        -4.37192
H           0.58260        -3.99826        -5.61653
H          -1.09187        -3.02333        -4.65156
H          -1.06765        -4.50948        -3.31861
H          -2.19579        -5.71394        -4.75712
H          -2.20722        -4.38812        -5.96917
H          -3.88991        -3.57410        -3.76332
H           0.58454        -2.29867        -0.61276
H           0.68952        -0.85971        -2.19187

