%chk=CdC1CdCCdC2NdCN2CdCdCCNC1.chk
%NProcShared=20
# opt freq b3lyp/6-31g(2df,p)

Title Card Required 

0  1
C           1.28580        -0.14955         0.56457
C           2.48943        -0.47995         1.14579
C           3.31097         0.51436         1.89659
C           4.68042         0.46023         1.70392
C           5.59892        -0.23208         2.64051
C           6.89383        -0.57215         2.57325
N           7.88782        -0.42326         1.59940
C           8.73652        -0.77202         2.47671
N           7.80215        -1.07374         3.38403
C           7.86719        -1.36267         4.70798
C           6.70724        -1.43470         5.39252
C           5.49149        -1.59017         5.59811
C           4.68680        -2.69278         4.88024
N           3.59952        -2.09937         3.66332
C           3.24311        -1.87795         1.89618
H           0.33099        -0.36606         1.03045
H           1.07982         0.29120        -0.45071
H           2.83202         0.34679         2.88165
H           5.06790         0.30407         0.68742
H           5.12373        -0.56079         3.53454
H           9.82273        -0.82812         2.60081
H           8.79132        -1.61147         5.19077
H           4.93990        -0.93430         6.31077
H           4.35316        -2.85649         5.99183
H           4.83970        -3.80621         4.97462
H           2.98356        -1.51750         4.21732
H           3.68114        -2.65070         1.23416
H           4.03561        -1.42416         1.25219

