%chk=CdC1CdCCdCCdCCdCC2dCC2dC1C.chk
%NProcShared=20
# opt freq b3lyp/6-31g(2df,p)

Title Card Required 

0  1
C           2.08855         0.03483         0.15996
C           4.00770         0.24715         0.60132
C           3.02141         0.61501         1.36601
C           4.32249         0.63530         1.40820
C           5.03363         1.20755         2.59776
C           6.28607         1.24230         2.67000
C           6.99622         1.65374         3.52529
C           9.01625         1.08385         2.34063
C           8.80248         2.01198         4.26997
C          10.58750         2.11771         4.48977
C           9.17699         2.09048         4.43315
C          10.20457         1.75589         3.73762
C           7.87411         1.28635         2.76155
C           6.23337         0.56914         1.27066
C           4.49416        -0.25584        -0.44427
H           0.65520         0.31205         0.73624
H           0.75924        -0.40774        -0.76004
H           2.54521         0.96654         2.09676
H           5.40726         0.13968         0.37792
H           4.59611         1.56976         3.35070
H           7.54778         0.70055         1.54384
H           6.82683         2.06608         4.38243
H           9.82334         1.17492         2.52993
H           8.58131         2.69323         5.68611
H          11.71716         1.66569         3.55013
H          11.83360         2.25967         4.78485
H           3.76026        -0.95054        -1.88839
H           3.10823        -0.26755        -1.58498
H           3.10823        -1.13977        -1.16539

