%chk=CdC1Nd[SH]CqSCCqNrNdOrSN1.chk
%NProcShared=20
# opt freq b3lyp/6-31g(2df,p)

Title Card Required 

0  1
C           1.05174         0.00318         0.01262
C           2.39741         0.03773         0.02758
N           3.03299         1.21545         0.22664
S           4.47403         1.50412        -0.01099
C           5.38194        -0.04150        -0.02395
S           6.35452         0.01139        -1.56744
C           7.14949        -1.62035        -1.59309
C           8.06950        -1.68196        -2.83141
N           9.05165        -0.57953        -2.82672
N           8.70151        -3.04182        -2.87565
O           9.41250        -3.20089        -3.87547
S           4.54039        -1.56740         0.33491
N           3.02197        -1.19275        -0.16898
H           0.49597         0.93512         0.07490
H           0.48447        -0.91250        -0.08532
H           4.79971         1.95768         1.17572
H           6.09833         0.05381         0.79693
H           6.39189        -2.40582        -1.66863
H           7.72494        -1.76956        -0.67123
H           7.45429        -1.60357        -3.73862
H           9.57341        -0.64073        -1.95526
H           8.49313         0.27621        -2.72297
H           2.35200        -1.94867        -0.06507

