%chk=CdC1NNdC2CdC2CdCCdCdCNNN2CdC1C2N.chk
%NProcShared=20
# opt freq b3lyp/6-31g(2df,p)

Title Card Required 

0  1
C          -0.24090         1.70110         1.56161
C          -0.24592         2.89177         2.78287
N           1.46501         2.23864         2.02716
N           3.15784         1.72614         1.41281
C           4.33676         1.39502         1.94131
C           5.71662         1.02985         2.31085
C           4.79935         1.35791         3.34017
C           3.24253         1.42406         3.77975
C           2.34153         1.93122         4.64894
C           0.84199         1.78302         4.71218
C           0.10762         2.30231         5.66488
C          -0.53429         2.64767         6.74068
N          -1.46615         3.54611         6.79518
N          -2.20702         4.33893         7.48788
N          -2.57643         5.11074         6.19461
C          -1.73407         5.45813         5.16575
C          -1.53897         4.01631         4.13410
C          -3.43719         4.41667         5.24859
N          -4.58859         4.67745         6.80557
H           0.55059         0.83934         0.76079
H          -0.60186         0.95766         0.77014
H           1.53322         1.03654         1.90338
H           6.95096         0.93797         2.09015
H           2.54826         0.87787         3.16439
H           2.76226         2.42616         5.46723
H           0.26341         1.26564         3.92712
H          -0.45670         2.24911         7.69067
H          -1.60234         3.85242         5.90005
H          -1.71571         4.82976         8.24760
H          -1.69190         6.51982         5.84754
H          -4.31329         5.10537         4.89399
H          -4.99693         5.45697         7.61626
H          -5.39695         4.08776         7.10173

