%chk=CdC1CdCC2dCCdCNdCCdC1CdCCdCC1dCCdC21.chk
%NProcShared=20
# opt freq b3lyp/6-31g(2df,p)

Title Card Required 

0  1
C           2.06352        -0.00164        -0.49405
C           4.00062         0.08539        -0.09459
C           4.95548        -0.76095         0.63536
C           4.67244        -0.19400         1.74254
C           5.17547        -0.20829         2.88550
C           6.41038        -0.22605         2.91428
C           6.93330        -0.27522         3.97192
C           8.12054        -0.35987         3.88004
N           9.00598        -0.37608         5.00512
C           9.48355        -0.20582         3.61513
C           7.90558         0.04894         1.80141
C           6.20682         0.22445         0.61765
C           4.03707         0.70529         0.15137
C           2.54114         0.30327         1.31493
C           2.83103        -0.16977         2.55748
C           1.82530        -0.24594         3.15284
C           2.99909        -0.29940         3.96930
C           2.87718        -0.38759         5.23403
C           4.56836        -0.38595         5.20643
C           4.43585        -0.28791         3.94063
H           0.59257        -0.02688         0.33635
H           0.60508         0.09927        -1.05590
H           3.46665        -0.76660         0.61091
H           5.43847        -0.14081         1.86658
H           6.64552        -0.26606         1.90055
H           6.86815        -0.35984         4.88279
H           9.15762        -0.28077         2.29018
H          11.08559        -0.28562         3.96093
H           9.19568        -0.13867         3.28177
H           4.58999         0.15841        -1.35966
H           1.60409        -0.08878         1.05033
H           3.27891        -0.05992         1.82683
H           0.85211        -0.19340         2.68154
H           1.58601        -0.40841         5.50547
H           5.71196        -0.42083         5.66663

