%chk=CdC1CC2dCqCdCCqSrdNSC2rS1.chk
%NProcShared=20
# opt freq b3lyp/6-31g(2df,p)

Title Card Required 

0  1
C           1.04045        -0.20483        -0.06552
C           2.34114        -0.04376         0.01705
C           3.59690        -0.98027        -0.13103
C           4.80311        -0.01190        -0.53818
C           4.31288         1.25390        -0.68470
C           4.86788         2.03249        -1.74389
C           5.22464         3.35240        -1.71670
C           6.71071         3.19047        -1.78034
S           7.54875         3.01914        -3.30364
N           7.15728         2.71340        -0.64957
S           7.76444         1.13514        -0.52568
C           6.27928        -0.23536        -0.99776
S           2.86983         1.63094         0.13558
H           0.47792        -1.13639        -0.20686
H           0.37878         0.68219        -0.01526
H           3.34040        -1.76629        -0.87126
H           3.76392        -1.49362         0.82548
H           5.46395         1.42012        -2.41179
H           4.81444         3.94023        -0.90992
H           8.35963         2.08902        -2.76255
H           6.72287        -1.08450        -0.47338
H           6.36871        -0.47700        -2.07385

