%chk=CdC1Cdc2ccccc2dCCdCCS1.chk
%NProcShared=20
# opt freq b3lyp/6-31g(2df,p)

Title Card Required 

0  1
C           0.65869         0.16140        -0.54285
C           1.88534        -0.35999        -0.47506
C           3.02969         0.14687        -1.30449
C           4.38270         0.32307        -1.15865
C           5.16888         0.73514        -2.39260
C           6.49969         0.54197        -2.48721
C           7.27655         0.12819        -1.33365
C           6.70267        -0.03209        -0.14070
C           5.22832         0.06660         0.07363
C           4.81444        -0.03146         1.36328
C           3.50231         0.33474         1.87683
C           2.75190        -0.35900         2.76490
C           1.36924        -0.71427         2.24601
S           1.89344        -1.72238         0.63568
H           0.34153         0.91883        -1.23860
H          -0.10287        -0.15352         0.17931
H           2.62586         0.54347        -2.24254
H           4.65790         1.15182        -3.26039
H           7.06228         0.74566        -3.40057
H           8.36154         0.05727        -1.45543
H           7.34337        -0.15801         0.73231
H           5.50168        -0.44671         2.09563
H           2.96518         0.97384         1.17963
H           3.15166        -1.03098         3.51448
H           0.75721         0.20485         2.15669
H           0.72854        -1.42590         2.78194

