%chk=CdC1CdCCdCON2CdCCdCC2dCCdNCdCCC1.chk
%NProcShared=20
# opt freq b3lyp/6-31g(2df,p)

Title Card Required 

0  1
C           0.92348        -0.07174        -0.10072
C           2.24485        -0.31033        -0.05612
C           3.00081        -0.83194        -1.18969
C           4.33501        -0.71853        -1.32503
C           5.09961        -1.47635        -2.29235
C           6.43421        -1.44913        -2.38505
O           7.08574        -2.46548        -3.06431
N           8.47631        -2.46968        -2.86741
C           9.23052        -2.47574        -4.03723
C          10.57224        -2.53411        -4.06249
C          11.26941        -2.59009        -2.79779
C          10.58411        -2.65084        -1.64021
C           9.09532        -2.69547        -1.60383
C           8.52178        -2.92907        -0.40200
C           7.06998        -3.20356        -0.20104
N           6.43787        -2.97555         0.89837
C           5.05589        -2.94364         0.80265
C           4.31158        -2.51442         1.82220
C           2.93827        -1.88559         1.70373
C           2.94689        -0.36832         1.28572
H           0.31844        -0.31998        -0.96628
H           0.39118         0.31933         0.76510
H           2.42848        -1.43318        -1.89279
H           4.92900        -0.16924        -0.59382
H           4.56153        -2.24958        -2.83700
H           7.07015        -0.79883        -1.79384
H           8.64462        -2.44349        -4.94895
H          11.12995        -2.53755        -4.99153
H          12.35619        -2.59908        -2.82115
H          11.13633        -2.71561        -0.70666
H           9.09924        -2.92760         0.51769
H           6.54565        -3.58637        -1.09413
H           4.60267        -3.02090        -0.18787
H           4.75312        -2.53637         2.81452
H           2.40401        -2.00290         2.65276
H           2.35035        -2.48087         0.98905
H           3.94950         0.07274         1.22500
H           2.42240         0.27411         2.00970

