%chk=CdC1CdCCdCCdCn2[nH]cc1ccc1ccccc12.chk
%NProcShared=20
# opt freq b3lyp/6-31g(2df,p)

Title Card Required 

0  1
C           3.04809        -1.79669         0.00236
C           4.50373        -2.78321         0.61568
C           3.62522        -1.32278         1.24987
C           4.76911        -0.67954         1.21604
C           5.46806        -1.44699         2.16914
C           6.78007        -1.42753         2.00243
C           7.44544        -2.14545         3.03825
C           8.79781        -2.14122         3.07445
N           9.40893        -3.30146         3.73995
N           9.81900        -3.71453         2.54631
C           8.19800        -3.74401         1.63347
C           6.29613        -3.57819         1.19381
C           6.04837        -5.30880         1.57040
C           7.20249        -5.63250         2.13281
C           7.67011        -5.47803         3.61396
C           7.05886        -6.45671         4.35461
C           7.28541        -6.53033         5.70385
C           8.35816        -5.87229         6.27623
C           9.18083        -5.06784         5.52398
C           8.65793        -4.60052         4.32859
H           2.22920        -0.53031         0.12666
H           1.62363        -1.53124         0.08796
H           2.69689        -1.75143         1.87101
H           5.10736        -0.27418         0.23684
H           4.89003        -2.43712         2.57460
H           7.24492        -1.15261         1.03461
H           6.91674        -3.16699         3.35019
H           9.35346        -1.99227         1.95648
H          10.93018        -3.23450         2.57666
H           9.12070        -4.70623         2.30339
H           5.56433        -6.17578         2.08875
H           7.58721        -5.24154         1.16403
H           6.36651        -7.10975         3.85842
H           6.65002        -7.14389         6.31297
H           8.52154        -5.97931         7.33314
H          10.13383        -4.72619         5.88588

