%chk=CdC1SCC2dCNdC2CdCCdCC2dCdCN12.chk
%NProcShared=20
# opt freq b3lyp/6-31g(2df,p)

Title Card Required 

0  1
C           0.50034        -1.14152        -0.58070
C           0.40589        -2.45960        -1.29782
S           2.38163        -1.52624        -0.78006
C           4.61743        -1.19433        -0.60515
C           5.65268        -2.20482        -1.16264
C           6.99646        -2.19411        -1.16474
N           6.89825        -3.41598        -1.81790
C           5.63438        -3.53913        -1.89252
C           4.16250        -3.61727        -1.93373
C           3.38221        -4.53145        -2.44863
C           2.02677        -4.54623        -2.45712
C           1.36904        -5.52703        -2.99162
C           0.14572        -5.03759        -2.71743
C          -0.91891        -5.48286        -2.96787
C          -1.89794        -4.84852        -2.62507
N          -0.52841        -3.91790        -2.10579
H           0.53969        -0.06212         0.01230
H          -0.48069        -0.82983        -0.40096
H           5.08101        -1.01691         0.43974
H           5.08086        -0.21613        -1.01397
H           7.79695        -1.50923        -0.78963
H           3.46482        -2.94506        -1.57544
H           3.67224        -5.40427        -2.91893
H           1.45781        -3.77963        -2.03060
H           1.49226        -6.44634        -3.49934
H          -2.27292        -6.01661        -3.26276

