%chk=Cdc1cccqdCCdCdCCNrs1.chk
%NProcShared=20
# opt freq b3lyp/6-31g(2df,p)

Title Card Required 

0  1
C           0.75968         0.12180        -0.03023
C           2.08724         0.03467        -0.03098
C           3.08833         1.07123        -0.02714
C           4.34590         0.58924        -0.01824
C           4.38894        -0.86151        -0.01858
C           5.46547        -1.66214        -0.00922
C           5.33492        -3.10476        -0.01303
C           6.34570        -3.91328         0.00434
C           7.30397        -4.77836         0.02971
C           7.30248        -5.98861         0.89860
N           8.55135        -6.71603         0.73677
S           2.77660        -1.53915        -0.03444
H           0.22363         1.05554        -0.02738
H           0.17888        -0.80119        -0.03073
H           2.83584         2.12272        -0.03027
H           5.23599         1.20678        -0.01230
H           6.46970        -1.24628         0.00179
H           4.35237        -3.56560        -0.02104
H           8.15782        -4.58319        -0.60774
H           6.45903        -6.64214         0.64493
H           7.19130        -5.68996         1.94712
H           8.61060        -7.05718        -0.22130
H           8.52577        -7.54277         1.32944

