%chk=CdC1CdCCdCCdCCdCSC[SH]d[SH]1.chk
%NProcShared=20
# opt freq b3lyp/6-31g(2df,p)

Title Card Required 

0  1
C           2.93031        -0.28914        -0.28463
C           4.73620        -0.71601        -0.72875
C           3.42803        -1.56602        -0.27638
C           4.73263        -1.63091        -0.00280
C           5.14108        -2.86527        -0.52871
C           6.29661        -3.38642        -0.28998
C           7.03615        -4.23561        -0.98699
C           8.25565        -4.09387        -1.36049
C           9.09321        -5.25977        -1.26405
C          10.32538        -5.16164        -1.77391
S          11.32825        -6.56304        -1.43289
C          11.91255        -4.59272        -0.70226
S           9.75211        -2.85610        -0.23943
S           7.44246        -1.51941        -0.44721
H           1.37447        -0.75052        -0.26456
H           1.54058         0.47661        -0.09624
H           2.59836        -2.28697        -0.58180
H           5.57081        -0.52059         0.57722
H           4.49090        -3.56876        -0.86696
H           7.40159        -3.21229         0.26876
H           6.61993        -5.10916        -1.04936
H           8.45317        -2.84486        -1.35071
H           8.75809        -6.26356        -1.25364
H          10.92900        -3.94747        -1.71796
H          13.13416        -5.51625        -0.30709
H          13.02578        -5.17415        -1.71753
H          10.63728        -4.48184        -0.10744
H           6.55993        -0.21203        -0.83525

