%chk=CdC1CdC2[SH]dCdCdC[SH]12dC.chk
%NProcShared=20
# opt freq b3lyp/6-31g(2df,p)

Title Card Required 

0  1
C           0.92237         0.02767         0.05664
C           2.28277         0.02767         0.05664
C           3.32269        -1.01124         0.05613
C           4.31277        -0.01867         0.06250
S           6.12209        -0.06695         0.07328
C           6.70260         1.44541         0.07745
C           7.19010         2.71546         0.08095
C           3.35642         2.12378         1.53263
S           3.33183         1.07571         0.05715
C           3.36758         2.25680        -1.05099
H           0.40637        -0.86607         0.05620
H           0.40637         0.92141         0.05708
H           3.32359        -2.04323         0.05256
H           6.56479        -0.71941        -1.03483
H           2.74644         2.41552         2.31227
H           3.48043         0.38183        -1.10304
H           3.28331         3.24255        -0.75738
H           3.47461         2.02346        -2.05055

