%chk=CdC1CdCqOrCCC2dCqCdCN1rSCdCCdC2.chk
%NProcShared=20
# opt freq b3lyp/6-31g(2df,p)

Title Card Required 

0  1
C           1.99096        -0.46864        -0.40005
C           3.24840        -0.27684        -0.97226
C           3.29878         1.13377        -1.00039
C           4.40267         1.62219        -0.44703
O           5.18107         0.96627         0.51120
C           5.10724         2.35860        -1.48325
C           6.55937         2.20712        -1.13467
C           7.21538         2.80608        -2.27280
C           7.56977         1.92401        -3.20369
C           7.13169         0.26471        -2.84927
C           6.12691        -0.55154        -2.08828
N           4.67099        -0.89022        -1.27920
S           8.89761         2.47771        -4.32960
C           8.97889         4.27654        -4.49226
C           8.36419         5.30248        -3.90126
C           7.45006         5.28407        -2.80112
C           7.08691         4.25621        -2.12728
H           1.24758         0.38631        -0.44625
H           1.39467        -1.21795         0.12766
H           2.67022         1.66570        -1.70460
H           4.96703         0.01619         0.49799
H           4.71539         3.36976        -1.49062
H           4.90312         1.95698        -2.51427
H           6.88030         1.18356        -1.02114
H           6.91080         2.54232        -0.16548
H           8.11252        -0.22214        -3.06817
H           6.69815        -1.40311        -1.65387
H           4.82877        -1.64537        -0.58992
H           9.69157         4.65085        -5.24653
H           8.55638         6.33570        -4.22054
H           7.03561         6.25676        -2.49116
H           6.39838         4.51336        -1.30769

