%chk=CdC1CdCCdC2CdCOOCdCCdCCdC2S1.chk
%NProcShared=20
# opt freq b3lyp/6-31g(2df,p)

Title Card Required 

0  1
C           1.39748         0.19860        -0.30345
C           2.71741         0.33501        -0.69737
C           3.49772        -0.89916        -0.24960
C           4.68279        -1.16989        -0.78769
C           5.10834        -0.47791        -2.03490
C           5.16787         0.64689        -2.87835
C           5.51249         0.12356        -4.15051
C           5.09913         0.87937        -5.12037
O           5.63958         1.05895        -6.32138
O           4.84915         2.20087        -6.57539
C           4.82561         2.57851        -7.85947
C           4.64588         3.90899        -7.92848
C           5.98167         4.31096        -7.41304
C           5.86204         4.30811        -5.94820
C           5.14294         3.52293        -4.20996
C           4.83435         2.35669        -3.08740
S           3.53703         2.19741        -1.34582
H           0.90898        -0.76685        -0.00457
H           0.64764         0.97376        -0.23605
H           3.09241        -1.70778         0.45196
H           5.12816        -2.16360        -0.49292
H           5.55241        -1.38960        -2.47211
H           5.93583        -0.82780        -4.34897
H           4.32436         1.62285        -4.90291
H           5.74577         2.14103        -8.27780
H           3.99687         4.63687        -7.39805
H           6.12635         4.11352        -8.63597
H           5.81851         5.45328        -6.19392
H           5.08644         4.50001        -3.69859

