%chk=CdC1CdCCdCSCdCqNdNrSNS1.chk
%NProcShared=20
# opt freq b3lyp/6-31g(2df,p)

Title Card Required 

0  1
C           3.04192        -0.63411         0.25601
C           4.51325        -1.02909         0.31616
C           3.99441        -1.31410        -1.06037
C           4.92167        -0.86101        -1.84815
C           5.25878        -2.09543        -2.45781
C           6.53577        -2.27628        -2.62092
S           7.19025        -3.62639        -3.25149
C           8.70158        -2.71129        -3.45527
C           9.80876        -3.44188        -3.36154
N           9.85465        -4.78950        -3.91727
N           8.77511        -5.12490        -4.49674
S          10.32385        -2.50353        -1.62025
N           8.51770        -2.58032        -0.60373
S           6.80288        -1.75725         0.16922
H           2.04505        -0.83271        -0.46869
H           2.25851         0.09521         0.73568
H           3.08198        -1.91801        -1.41501
H           5.61489        -0.15613        -1.29357
H           4.57095        -2.94123        -2.50641
H           7.22673        -1.55301        -2.23404
H           8.84080        -1.70990        -2.97038
H           8.37297        -5.95803        -4.94600
H           8.72367        -3.58976        -0.84619

