%chk=CdC1CCdCdCdCCdCqOOrCdCCdCCdCCdCCdC2CdC2C1.chk
%NProcShared=20
# opt freq b3lyp/6-31g(2df,p)

Title Card Required 

0  1
C           4.39608        -0.91461        -1.24843
C           6.89205        -1.25668        -2.12519
C           4.41441        -0.42129        -1.62155
C           5.11913         0.44512        -0.90947
C           5.55148         0.36966        -2.20581
C           6.40680         0.19218        -3.11353
C           7.32087         0.08708        -4.04373
C           8.51955        -0.66426        -4.10619
C           9.46280        -0.70090        -5.05504
O           9.26466         0.06705        -6.19147
O           8.10012         0.82390        -6.23339
C          10.73213        -1.53881        -5.01533
C          11.55867        -1.50115        -6.01778
C          12.52403        -2.40136        -6.32130
C          13.67488        -2.50104        -7.02084
C          14.53747        -4.33696        -6.70118
C          15.27275        -4.04734        -7.96596
C          16.86970        -4.80804        -7.82845
C          17.83047        -4.09283        -9.08800
C          17.05581        -3.83559        -7.60499
C          15.14403        -2.85376        -6.36917
C          15.10895        -2.71814        -5.37700
C          12.89516        -2.26767        -4.68227
C           9.83076        -1.68939        -3.21752
H           2.29829        -0.35616        -0.90508
H           2.53621        -0.42013        -0.16555
H           3.02468         0.85567        -1.77766
H           2.88615        -0.86894        -1.93413
H           4.15222         0.22395        -0.02398
H           7.11679         0.68319        -4.87502
H           8.51082        -1.44937        -3.48499
H           8.10691         1.29039        -7.07059
H          10.97236        -2.17630        -4.16864
H          11.43147        -0.93854        -6.84216
H          12.57944        -3.47256        -5.10136
H          13.60391        -1.77549        -7.81519
H          15.01608        -4.12355        -5.84503
H          15.69476        -2.68878        -8.71212
H          17.40723        -4.82215        -6.78948
H          17.87269        -3.36685        -9.79278
H          18.85457        -5.01896        -7.93537
H          17.01906        -3.31695        -6.36962
H           8.72169        -0.99910        -1.86999
H           8.42333        -1.37772        -2.03408

