%chk=CdCCCqCrC1dCCdCCqdOrC2dCCdCqOrC2C1.chk
%NProcShared=20
# opt freq b3lyp/6-31g(2df,p)

Title Card Required 

0  1
C           0.80523         0.10322         0.03108
C           2.13884         0.12661        -0.00169
C           2.90804        -1.14186        -0.05027
C           4.42418        -0.93117         0.02907
C           4.89628        -0.28477         1.32970
C           5.14102        -2.24695        -0.22823
C           4.56281        -3.39852         0.16118
C           4.74934        -4.73542        -0.31176
C           5.88503        -5.40421        -0.50118
C           7.19286        -4.73145        -0.31168
O           7.73820        -4.61918         0.75273
C           7.66403        -4.08614        -1.55512
C           8.08383        -4.76536        -2.63060
C           7.77869        -3.97293        -3.80709
C           6.96730        -2.95797        -3.44390
O           6.35216        -2.07214        -4.27772
C           7.19854        -2.72464        -1.96656
C           6.50127        -2.00084        -0.81949
H           0.24610         1.02403         0.11259
H           0.26922        -0.84092        -0.01397
H           2.67999         1.06582         0.04797
H           2.67307        -1.67300        -0.98612
H           2.56418        -1.76470         0.78338
H           4.67455        -0.25470        -0.80291
H           4.65685        -0.91395         2.19195
H           4.42723         0.69199         1.47633
H           5.97950        -0.11808         1.32066
H           3.72259        -3.36432         0.85834
H           3.79878        -5.22892        -0.53085
H           5.87896        -6.41401        -0.88196
H           8.31698        -5.81774        -2.65051
H           8.15451        -4.21159        -4.79013
H           5.82485        -2.60026        -4.91172
H           8.09407        -2.08106        -2.03790
H           6.65217        -0.92286        -0.96748
H           7.15631        -2.16597         0.05625

