%chk=CdCc1cccc2c1dCdCCdCNd2.chk
%NProcShared=20
# opt freq b3lyp/6-31g(2df,p)

Title Card Required 

0  1
C           0.93567        -0.13301        -0.03919
C           2.22645        -0.46412        -0.20951
C           2.95480        -1.42243         0.64762
C           3.72646        -0.69095         1.50700
C           4.18124        -1.14484         2.79513
C           4.04445        -2.39801         3.14702
C           3.20138        -3.34431         2.35988
C           2.81101        -2.95551         0.87736
C           2.26017        -4.01952         0.22080
C           1.79674        -5.30190         0.27467
C           1.77352        -5.88824         1.65339
C           1.59483        -4.89147         2.52379
N           2.71371        -4.32285         3.08306
H           0.48436         0.68840        -0.59739
H           0.30343        -0.61982         0.69554
H           2.82561         0.25959        -0.77766
H           3.97215         0.36546         1.35838
H           4.53691        -0.39651         3.52331
H           4.32304        -2.72859         4.14622
H           0.96090        -5.78004        -0.27545
H           2.43875        -6.70364         1.95725
H           0.89989        -4.11508         2.15768

