%chk=CdCC1dCCdCCdCCdCNdCCdC1Cd[SH]S.chk
%NProcShared=20
# opt freq b3lyp/6-31g(2df,p)

Title Card Required 

0  1
C           1.41302         0.07765        -0.34571
C           3.07715         0.39168        -1.02556
C           4.49413         1.19812        -2.50029
C           4.65722         0.52505        -1.30760
C           5.43955         0.94955        -2.38566
C           6.72130         0.95274        -2.36531
C           7.59850         1.31083        -3.35352
C           8.83066         1.36262        -3.36615
C           9.31555         1.46960        -4.63463
C          10.61780         1.81192        -4.49779
N          10.56540         1.60794        -5.76258
C          10.46150         2.83397        -5.25922
C           8.04665         2.80926        -4.70587
C           6.10506         2.20425        -4.01581
C           3.70302         1.66640        -3.73491
S           1.06423         1.58855        -3.79435
S          -1.64681         1.44187        -3.40023
H           0.52964        -0.38893         0.71439
H           0.43047         0.31133        -0.86951
H           2.95177        -0.26476         0.44191
H           5.03031         0.09976        -0.41662
H           5.05457         1.39136        -3.73325
H           7.12177         0.61022        -1.55002
H           7.24854         1.67774        -4.77734
H           9.33469         1.08966        -2.62340
H           8.27074         1.90880        -5.88123
H          11.44306         1.64048        -3.90451
H          12.29786         2.42072        -5.26813
H           9.31088         2.86147        -6.00786
H           2.41433         1.15412        -2.76210
H           0.38590         0.86868        -4.84650
H          -2.37272         2.14898        -2.32957

