%chk=CdCCCdNC1dCCdCCCdCCdCCdC1.chk
%NProcShared=20
# opt freq b3lyp/6-31g(2df,p)

Title Card Required 

0  1
C           0.92875         0.00619        -0.02346
C           2.26607        -0.01889        -0.01685
C           3.08359        -1.28748         0.31724
C           4.97596        -1.15581         0.28257
N           6.62945        -1.87100         0.47093
C           8.70105        -2.15306         0.54524
C           7.71325        -3.01009         0.77091
C           9.12109        -2.96953         0.76023
C           9.99707        -4.02359         1.03776
C          12.23553        -3.04396         0.77975
C          11.32937        -4.33006         1.11854
C          13.07258        -3.15764         0.80981
C          13.10788        -5.12515         1.32794
C          14.66592        -5.07200         1.31371
C          12.67542        -4.46410         1.16713
C          10.91768        -2.95833         0.72922
H           0.37429         0.89414        -0.25731
H           0.37061        -0.87774         0.20933
H           2.79140         0.89028        -0.25630
H           2.77089        -2.04240        -0.39874
H           2.77089        -1.59181         1.31220
H           4.92350        -0.04374        -0.01031
H           7.28719        -3.85803         0.99423
H          10.46896        -1.74311         0.43724
H           9.61360        -4.84307         1.25365
H          11.99970        -2.27134         1.67275
H          11.99965        -2.81138        -0.37778
H          11.50592        -5.45812         1.41564
H          14.46118        -3.43382         0.88251
H          13.72726        -6.53879         1.70024
H          16.15404        -4.81840         1.24716
H          14.36817        -5.33047         1.38157
H           9.48592        -1.69647         0.44044

