%chk=CdCCSC1dNCdCC2dCCdCCC2S1.chk
%NProcShared=20
# opt freq b3lyp/6-31g(2df,p)

Title Card Required 

0  1
C           1.04349        -0.00040        -0.07760
C           2.38579         0.02787        -0.04329
C           3.17032         0.79705         0.99691
S           4.93691         0.80848         0.61350
C           5.63515         1.64029         2.02840
N           5.72908         0.88384         3.07988
C           6.59163         1.10417         4.09221
C           7.08945         2.22568         4.63212
C           6.76415         3.60168         4.41284
C           7.11427         4.40386         5.43770
C           6.71119         5.78511         5.48620
C           7.12146         6.42628         4.39312
C           6.53170         5.82768         3.09209
C           6.07083         4.22703         3.20958
S           6.35072         3.22214         1.68153
H           0.50910        -0.55809        -0.84360
H           0.44209         0.52634         0.65699
H           2.92073        -0.53340        -0.80915
H           2.97438         0.36749         1.98477
H           2.84863         1.84056         0.98138
H           6.92276         0.18885         4.58784
H           7.79716         2.05226         5.44158
H           7.75780         4.08008         6.24646
H           5.60410         5.78781         5.49104
H           7.45646         7.44039         4.62383
H           7.23805         5.97804         2.26899
H           5.63976         6.43393         2.86664
H           4.98211         4.21986         3.36667

