%chk=CdCC1dC2CdCdCdCqCdCCdCCdC1rSCdC2.chk
%NProcShared=20
# opt freq b3lyp/6-31g(2df,p)

Title Card Required 

0  1
C           1.81161        -0.82893         0.00699
C           3.23736        -1.24181        -0.14367
C           4.83076        -2.30301        -0.11170
C           5.78056        -1.41185         0.54004
C           5.79827        -2.10183         1.82352
C           6.93177        -2.60584         1.91802
C           8.15902        -2.70483         1.69342
C           9.39204        -2.53916         1.54077
C          10.23927        -3.59368         1.03271
C           9.51608        -4.66781         0.78124
C           9.45000        -6.04566         0.53820
C           8.03135        -6.36212         0.60947
C           6.58422        -5.28539         0.40257
C           5.45860        -4.11226         0.17810
S           9.71903        -0.95745         2.06534
C           8.76758        -0.32529         0.53068
C           7.33763        -0.60265         0.15442
H           1.30320         0.24514        -0.30816
H           0.81482        -1.20795         0.36860
H           3.53204        -0.17682        -0.39476
H           4.96639        -2.77027         2.10631
H          11.30700        -3.56449         1.01209
H           8.48285        -4.46353         0.86235
H          10.57337        -6.35911         0.49640
H           7.30990        -7.20818         0.64354
H           7.42194        -5.53281        -0.45871
H           4.54271        -4.44150         0.73755
H           9.84156        -0.64014         0.16554
H           6.80130         0.30894        -0.17995

