%chk=CdCCqdCCCdCCdCCrCCdS.chk
%NProcShared=20
# opt freq b3lyp/6-31g(2df,p)

Title Card Required 

0  1
C           1.02939         0.29254         0.24294
C           2.33579         0.05899         0.02748
C           2.97493        -0.92211        -0.87759
C           2.28210        -1.77446        -1.66390
C           0.80420        -1.88762        -1.76829
C           0.32669        -2.91903        -2.71978
C          -0.99621        -3.08848        -2.87610
C          -1.51465        -4.06536        -3.77728
C          -2.83007        -4.26091        -3.95768
C          -3.34611        -5.28644        -4.90375
C           4.51373        -0.91181        -0.86809
C           5.22570        -1.90980        -1.78875
S           6.89381        -2.02294        -1.89312
H           0.67750         1.04612         0.93813
H           0.20773        -0.22138        -0.23116
H           3.01893         0.68375         0.60383
H           2.78530        -2.47540        -2.31053
H           0.41587        -0.92748        -2.12641
H           0.41587        -2.16731        -0.78245
H           1.03744        -3.51986        -3.27405
H          -1.69179        -2.47292        -2.30823
H          -0.79482        -4.66275        -4.32838
H          -3.55881        -3.66919        -3.41182
H          -2.53382        -5.82636        -5.40183
H          -3.95767        -4.80579        -5.67161
H          -3.95767        -6.01313        -4.36286
H           4.86692        -1.10975         0.15356
H           4.86692         0.09060        -1.14761
H           4.62740        -2.58411        -2.41081

