%chk=CdCONdc1ccc2nnc-2c2cqCrcccc2cc1.chk
%NProcShared=20
# opt freq b3lyp/6-31g(2df,p)

Title Card Required 

0  1
C           1.11799        -0.09021         0.02310
C           2.46110        -0.12184        -0.04103
O           3.21033        -0.88085        -0.94777
N           4.57909        -0.49005        -0.82315
C           5.35383        -0.83623        -1.82197
C           6.14946        -2.11972        -1.88450
C           6.94250        -2.73665        -2.78055
C           8.43615        -2.67209        -2.62672
N           9.46641        -3.05541        -3.21112
N          10.29940        -2.32585        -2.26443
C           9.21509        -1.96686        -1.64383
C           8.85346        -1.11229        -0.52469
C           8.03219        -1.59342         0.53300
C           7.38514        -2.97044         0.51540
C           7.40234        -0.64651         1.36445
C           7.90879         0.62807         1.44496
C           8.57080         1.08398         0.31849
C           8.63629         0.24344        -0.81414
C           7.67110         0.48894        -2.05652
C           6.40135         0.10089        -2.45016
H           0.59383         0.54889         0.73814
H           0.48636        -0.67926        -0.63200
H           3.05413         0.48575         0.63310
H           6.74822        -1.70495        -1.10620
H           6.56965        -3.23294        -3.65635
H           7.78258        -3.58459        -0.29573
H           6.29989        -2.85392         0.34443
H           7.45691        -3.50961         1.44644
H           6.41568        -0.83640         1.78897
H           7.71332         1.24083         2.32144
H           9.11317         2.02706         0.39883
H           8.29899         0.86857        -2.86237
H           6.16469         0.03923        -3.52201

