%chk=CdCqCNNNCrC1Cdc2ccccc2dCNdCdNNN1O.chk
%NProcShared=20
# opt freq b3lyp/6-31g(2df,p)

Title Card Required 

0  1
C           0.84945         0.25121        -0.32337
C           2.19678         0.18915        -0.16822
C           3.12942         0.65255        -1.22407
N           2.27149         1.16167        -2.26238
N           2.98228         1.60085        -3.33469
N           2.00359         2.02876        -4.24789
C           2.71763         2.57473        -5.37859
C           2.78819        -0.40740         1.07624
C           4.42023        -0.59786         1.03601
C           5.34162        -0.91341         1.99353
C           6.84356        -0.83312         1.71342
C           7.73428        -1.44256         2.53316
C           7.31624        -2.00500         3.79793
C           6.03953        -1.93742         4.18512
C           4.96993        -1.47925         3.30593
C           3.76590        -1.59840         3.89771
N           2.75001        -0.72751         3.82754
C           1.65421        -1.16058         3.98839
N           0.54196        -1.24713         3.66908
N           0.52547        -0.66776         2.46049
N           1.64210        -1.29201         1.58308
O           1.36411        -2.59541         1.05326
H           0.31442         0.59279        -1.18546
H           0.14810        -0.14592         0.37604
H           3.73549        -0.18970        -1.59089
H           3.79070         1.44106        -0.84081
H           1.68375         1.88046        -1.84523
H           3.52787         0.81953        -3.71967
H           1.40727         2.74415        -3.82869
H           3.34406         1.79835        -5.83057
H           3.34882         3.41213        -5.06580
H           2.00271         2.91960        -6.12373
H           2.81860         0.44268         1.77046
H           4.92615        -0.15730         0.16525
H           7.24497        -0.29284         0.85388
H           8.80915        -1.46754         2.34349
H           8.06377        -2.38462         4.48592
H           5.76601        -2.14156         5.21369
H           3.66450        -2.22464         4.76696
H          -0.34450        -0.18556         2.17160
H           1.32102        -3.09805         1.89163

