%chk=CdCqCdOrCC1CC2dCCdCqCCrCqCrdCC1dC2.chk
%NProcShared=20
# opt freq b3lyp/6-31g(2df,p)

Title Card Required 

0  1
C           1.25492         0.25027        -0.00466
C           2.60906         0.36746        -0.09161
C           3.19132        -0.74645        -0.90618
O           2.50254        -1.57576        -1.55679
C           3.45415         1.50020         0.69513
C           5.13424         1.87063         0.58292
C           5.49163         1.67474         1.98449
C           6.81517         1.10037         1.43985
C           7.46656         0.17551         2.10823
C           8.87158         0.21862         1.95719
C           9.57349         1.32547         2.28560
C          11.11608         1.23438         2.18580
C          11.60145        -0.02937         1.43400
C           8.83165         2.57655         2.80820
C           9.27118         2.76909         4.30301
C           7.72527         3.28694         2.22574
C           6.67057         2.97776         0.80733
C           7.42592         1.99208         0.35373
H           0.67892        -0.52476        -0.53496
H           0.62293         0.89396         0.59639
H           4.27071        -0.84811        -0.90332
H           3.26101         1.15140         1.72588
H           2.90969         2.42727         0.54239
H           5.40252         0.97270        -0.04042
H           4.98303         1.05461         2.70852
H           5.26604         2.71637         2.34859
H           7.00508        -0.29207         2.96204
H           9.27909        -0.65567         1.47550
H          11.57576         1.20362         3.18509
H          11.52815         2.10826         1.67080
H          11.27646        -0.94489         1.94849
H          12.68885        -0.09470         1.35260
H          11.19040        -0.04309         0.41650
H           9.82282         1.89420         4.70522
H           8.39138         2.82277         4.95737
H           9.91488         3.63231         4.50321
H           7.47835         4.23265         2.71167
H           7.33610         1.78021        -0.71008

