%chk=CdNCqCrqCrNC1dNCdNNdCNdC1CN.chk
%NProcShared=20
# opt freq b3lyp/6-31g(2df,p)

Title Card Required 

0  1
C           1.01391         0.03202        -0.03915
N           2.29854         0.05079        -0.03009
C           2.95742         1.24896         0.53202
C           2.58483         2.47187        -0.32076
C           2.54044         1.41544         1.99733
N           4.39099         1.09016         0.44804
C           5.35860         1.96324         0.89912
N           5.24647         2.65630         1.99012
C           6.30186         3.44095         2.37522
N           6.69298         4.51638         1.76812
N           5.90573         4.91470         0.67661
C           6.09033         4.25462        -0.42680
N           6.93959         3.18530        -0.58019
C           6.62805         2.08449         0.04403
C           7.53377         0.87113        -0.05170
N           7.00398        -0.29071         0.66781
H           0.47155        -0.84115        -0.43683
H           0.37616         0.85245         0.33342
H           1.51379         2.68971        -0.28261
H           2.85187         2.30945        -1.37310
H           3.11151         3.36904         0.01874
H           1.46221         1.55363         2.10722
H           2.99383         2.29506         2.45705
H           2.83209         0.53727         2.58509
H           4.69106         0.26895        -0.07038
H           6.85841         3.11540         3.26985
H           5.52502         4.58161        -1.31492
H           8.51614         1.14078         0.34755
H           7.64596         0.61501        -1.11024
H           6.91697        -0.07072         1.66260
H           7.66728        -1.06204         0.61176

