%chk=ClC1dCCdCdCCdCCdCNdCCdC1.chk
%NProcShared=20
# opt freq b3lyp/6-31g(2df,p)

Title Card Required 

0  1
Cl          3.72572        -0.55016        -0.41223
C           5.69081        -1.86033        -0.42302
C           4.18171        -1.58581         0.38109
C           5.17996        -1.10774         1.26868
C           5.56897        -2.22888         1.70570
C           6.14778        -3.33834         1.74998
C           7.46579        -3.50387         1.82439
C           8.13156        -4.52811         2.15801
C           9.41866        -4.09739         2.33800
C          10.09427        -5.21615         2.59609
N          11.30538        -4.77294         2.39424
C          10.78285        -5.06580         1.00838
C           9.25505        -3.64923         0.18835
C           7.73773        -2.57231        -0.14313
H           3.03725        -2.00445         1.04765
H           5.62358        -0.11108         0.85972
H           5.62804        -4.05291         2.22329
H           8.20763        -2.84587         1.51693
H           7.74533        -5.34836         2.59118
H           9.74853        -2.82777         1.71750
H           9.97497        -6.31621         2.83110
H          11.46560        -6.22866         1.94935
H          10.74770        -3.76244         0.62263
H           7.20462        -1.22577        -0.08470

