%chk=ClCC1dC2CdS2SCdCCdNCdCCdC1.chk
%NProcShared=20
# opt freq b3lyp/6-31g(2df,p)

Title Card Required 

0  1
Cl          0.90591         0.04867        -0.05460
C           2.44504         0.26749         0.53496
C           3.88465         0.53273         0.90490
C           4.27365        -0.21903        -0.77749
C           5.07432        -0.87813        -2.42652
S           5.98371        -0.20231        -0.69593
S           5.96677         0.47490         1.06168
C           6.29997         1.00986         2.45997
C           5.85462         1.21230         3.65628
C           6.39837         1.46466         4.86889
N           5.15753         1.52979         5.90700
C           6.74885         2.14022         6.05646
C           5.58812         2.86508         6.46175
C           4.91622         2.70289         4.47153
C           4.26812         1.46900         2.77289
H           2.89039        -0.70090         0.81062
H           2.88331         1.17976         0.07651
H           5.08888        -1.39151        -3.75428
H           7.23180         1.03476         2.49300
H           4.29835         1.36394         4.24663
H           7.60308         1.90228         4.66385
H           7.68575         2.65647         6.77713
H           5.51298         3.20856         8.09076
H           5.46122         2.97368         6.04897
H           3.84258         0.72123         1.56978

