%chk=CN1CdCCdCCdCC2dCCqCdC1SrC2.chk
%NProcShared=20
# opt freq b3lyp/6-31g(2df,p)

Title Card Required 

0  1
C           2.26301         0.07163         0.54345
N           3.96302         0.85363         1.39727
C           3.46377         1.68489         0.44348
C           4.54938         1.88649        -0.22758
C           5.18595         2.98652         0.36092
C           6.50109         2.94054         0.10423
C           7.20949         4.08134         0.49719
C           8.53094         3.95396         0.23188
C           9.07768         5.35590         0.85034
C          10.29245         4.92209         1.29663
C           8.74309         4.07245         2.37062
C           7.35466         2.45696         2.20528
C           5.85397         1.25759         1.78648
S           5.59265        -0.78450         0.84432
C           8.77252         5.61309         2.82831
H           1.20084         0.93747         0.54747
H           1.29561        -0.71875         0.87629
H           1.53399        -0.05435        -0.68078
H           2.59857         2.19607         0.85996
H           5.25839         1.04237        -0.37377
H           4.66253         3.46712         1.23028
H           7.16339         1.90956         0.11069
H           6.81167         4.56360         1.48809
H           9.18518         2.95543         0.68033
H          11.09921         5.26133         0.45122
H           9.49641         5.41257         2.48721
H           8.62738         2.79956         2.49617
H           4.33366        -1.59528        -0.09393
H           8.16022         6.46817         3.07462
H           9.43259         5.45500         3.90677

