%chk=CN1CdCCdCN[N]CdNCdC2CdNN2NdCC1dN.chk
%NProcShared=20
# opt freq b3lyp/6-31g(2df,p)

Title Card Required 

0  2
C           2.31021        -0.19087         0.33173
N           4.51558        -0.74107         1.14545
C           3.10837        -1.13046         1.01316
C           4.40369        -1.60426         1.15949
C           5.33297        -2.62524         1.69855
C           7.07078        -2.73871         1.40720
N           7.14951        -3.06077         2.56144
N           8.86742        -2.54747         2.07590
C           9.68862        -3.63611         2.72706
N          11.01085        -3.52552         3.05014
C          11.76364        -4.36568         3.74879
C          12.90144        -4.53678         3.94115
C          14.02144        -3.99222         3.56934
N          14.28573        -4.87001         4.38728
N          12.18371        -4.92939         4.84325
N           9.96371        -4.12144         4.36313
C           8.32672        -2.99433         3.66221
C           6.42315        -1.38428         2.27247
N           5.53142        -0.14176         0.96660
H           0.76398        -0.71023         0.68524
H           0.93752        -0.17258        -0.80162
H           0.91340         0.85551         0.36282
H           2.52656        -1.70003         1.53745
H           5.95622        -1.35632         0.66259
H           4.62161        -2.70743         2.44680
H           7.46266        -1.27865         0.97650
H           6.73072        -3.63847         3.18323
H           8.58056        -4.62412         3.59960
H          11.37246        -5.42129         3.84213
H          13.96341        -3.19894         2.83670
H           9.42338        -4.36656         4.27515
H           4.57726         0.61036        -0.28470

