%chk=Cn1cccccc2cc3ccccc3c-2cqdOr[nH]1.chk
%NProcShared=20
# opt freq b3lyp/6-31g(2df,p)

Title Card Required 

0  1
C           1.79935        -0.06688         0.22570
N           3.71640        -0.40085         0.67565
C           3.20907        -1.50490         0.96687
C           4.38261        -1.81168         0.45189
C           5.35148        -2.71765         1.01983
C           6.86349        -2.14901         0.65421
C           7.84496        -3.00355         1.15848
C           9.03979        -2.67731         1.54918
C          10.01246        -1.83329         1.25212
C          11.05036        -2.46134         1.64664
C          12.29090        -1.89830         1.26763
C          13.42598        -2.46638         1.63177
C          13.34336        -3.69058         2.39798
C          12.09581        -4.27798         2.76383
C          10.40852        -3.60133         2.44894
C           8.69449        -3.31892         2.63222
C           6.71254        -2.26380         2.68643
O           7.51398        -3.59464         3.20201
N           5.58273        -0.91650         1.79981
H           0.91312        -0.87748         0.63092
H           1.00289        -0.08663        -0.90682
H           0.98864         0.85744         0.57585
H           2.39087        -2.01325         1.34863
H           5.32327        -0.83478        -0.16282
H           4.77167        -3.18058         2.01767
H           7.41690        -1.03621         0.64269
H           6.97290        -4.00440         1.75887
H           9.47386        -1.11691         0.78093
H          12.25246        -0.98642         0.68322
H          14.36518        -2.00938         1.34968
H          14.35844        -4.08797         2.64743
H          12.25519        -5.17389         3.34637
H           4.88014        -0.04252         0.83441

