%chk=CN1CdCCdCC2dCCCCdNNdC21.chk
%NProcShared=20
# opt freq b3lyp/6-31g(2df,p)

Title Card Required 

0  1
C           1.36985         0.27335         0.01295
N           2.86849         0.42730         0.00699
C           3.52692        -0.82977         0.15318
C           4.55464        -1.43937        -0.46100
C           5.09851        -1.05316        -1.70112
C           4.98300         0.15409        -2.26689
C           4.50027         1.39463        -1.78393
C           4.92114         2.35066        -2.62900
C           4.58458         3.59543        -2.10595
C           4.71934         4.95491        -2.53563
C           4.04319         5.37356        -1.20755
N           3.53290         4.61016        -0.20566
N           3.21436         2.94432         0.00678
C           3.52163         1.70559        -0.52789
H           1.07491        -0.79999         0.02051
H           0.90772         0.65563        -0.90282
H           0.87867         0.69104         0.89823
H           3.00461        -1.49191         0.85114
H           4.88014        -2.43751        -0.16148
H           5.58553        -1.80559        -2.31003
H           5.37986         0.19177        -3.27431
H           5.53533         2.26052        -3.49862
H           5.20333         3.57944        -1.17833
H           3.47931         3.50969        -2.08419
H           4.17137         5.13821        -3.46494
H           5.77515         5.21998        -2.66849
H           4.00469         6.48472        -1.11141

