%chk=CNC1dCCqdc2c3ocqcccc4c2dCCd4rCd3rC1.chk
%NProcShared=20
# opt freq b3lyp/6-31g(2df,p)

Title Card Required 

0  1
C           1.00884        -0.01209        -0.10160
N           2.62127         0.16639        -0.28090
C           3.59026         1.31937        -1.25931
C           4.84297         2.21670        -2.28492
C           5.27595         4.20132        -3.09406
C           6.08719         6.05038        -4.08294
C           4.81710         4.96207        -3.02102
O           5.78454         5.62643        -3.77949
C           4.57309         6.73072        -3.34446
C           5.47115         7.51802        -4.10149
C           5.13014         8.68385        -4.19042
C           6.65245         8.78582        -5.21871
C           6.27864        10.35750        -5.35540
C           6.55496         8.40364        -4.99751
C           6.33606        10.50583        -5.42947
C           7.35209        11.34693        -6.27373
C           3.74558         5.52516        -2.51954
C           3.68500         3.13384        -1.85878
H           0.61554        -0.80049         0.60174
H           0.59576        -0.25724        -1.07616
H           0.59595         0.92825         0.24038
H           2.93740        -0.64537         0.44737
H           5.00980         0.63261        -1.96210
H           6.96481         7.00576        -4.86953
H           4.69980         9.45431        -4.15269
H           7.79479         9.15317        -5.92196
H           6.08931        12.18263        -5.73106
H           8.26412        11.34303        -6.82546
H           2.89282         4.86698        -1.82618
H           2.33552         2.71998        -1.97051
H           3.06068         3.19026        -0.58293

