%chk=CNCCSC1dCCdCCdCc2ccccc21.chk
%NProcShared=20
# opt freq b3lyp/6-31g(2df,p)

Title Card Required 

0  1
C           1.15215        -0.00861        -0.14424
N           2.70479        -0.01712        -0.18666
C           3.52632        -1.04061        -1.41801
C           5.55519        -1.16651        -1.81326
S           7.85992        -1.30579        -2.95815
C           9.63975        -2.11185        -4.33045
C           8.45514        -2.87705        -4.10992
C           9.25962        -3.47919        -3.00416
C           9.81084        -4.45598        -3.71343
C          11.18531        -4.40437        -3.50678
C          11.74123        -4.93199        -4.59632
C          12.57988        -3.85159        -4.50344
C          14.02994        -4.45868        -3.68237
C          15.33582        -4.11766        -3.74775
C          15.21670        -3.51726        -4.92553
C          13.50281        -2.89029        -5.42101
C          11.67173        -2.63795        -5.05665
H           0.74092         0.67998         0.64393
H           0.71034        -0.98610         0.10726
H           0.70207         0.34769        -1.07629
H           2.92961        -0.32480         0.76947
H           2.85895        -0.61608        -2.20574
H           2.92696        -1.94599        -1.03347
H           5.47433        -1.40100        -0.59789
H           5.40358        -0.03417        -1.65424
H           7.58834        -3.64158        -4.15443
H           9.78464        -2.64524        -2.34811
H           9.40462        -4.53141        -4.79777
H          11.63173        -3.33389        -3.03917
H          11.38114        -5.16055        -5.61053
H          13.72921        -4.82865        -2.71003
H          16.14987        -4.10151        -3.00397
H          16.45425        -3.67601        -5.29400
H          14.14275        -3.70755        -6.40095

