%chk=CNdC1C2dCCdCSCdCCdNNdNCdCC1dC2.chk
%NProcShared=20
# opt freq b3lyp/6-31g(2df,p)

Title Card Required 

0  1
C           0.99520        -0.07301        -0.06664
N           2.45094        -0.30105         0.10044
C           3.55401         0.22406        -0.34253
C           5.00411         0.74722        -0.90732
C           6.31141         0.55219        -0.73405
C           6.37896        -0.99515        -0.61462
C           7.46189        -1.70748        -0.31673
S           6.67333        -3.66062         0.05328
C           8.39292        -3.83174         0.08551
C           8.18618        -5.15665         0.48008
C           9.92647        -5.45653         0.56684
N           9.78935        -6.76950         1.43546
N          10.47626        -5.82636         1.57220
N           9.10567        -4.88585         2.20552
C           7.82934        -3.20983         2.09984
C           6.55181        -1.93446         1.64803
C           5.13267        -0.11142         0.90833
C           4.62661         1.46098         0.10201
H           0.58557        -1.03463         0.26569
H           0.62182         0.11960        -1.07525
H           0.61512         0.69660         0.60976
H           6.98240         1.36808        -0.50471
H           5.16272        -1.73143        -0.23244
H           8.13729        -0.89008         0.19659
H           9.30865        -3.13213         0.65393
H           7.81763        -5.91950         1.58022
H          11.06691        -4.53785         1.28289
H           9.13199        -4.19752         2.31251
H           5.48380        -1.14970         1.02732
H           4.60231         2.80221        -0.79357

