%chk=CNdCC1dCCdCCdCCdCdCdCCdCSS1.chk
%NProcShared=20
# opt freq b3lyp/6-31g(2df,p)

Title Card Required 

0  1
C           1.52683        -0.03351        -0.27126
N           3.39625        -0.12894        -0.73433
C           4.19557         0.05019        -2.12732
C           6.00294         0.13542        -3.31232
C           5.69948         1.21831        -2.53094
C           6.93453         1.61365        -1.98232
C           7.74571         2.08001        -2.92911
C           9.18046         1.62670        -3.01944
C           9.95582         1.93208        -4.06745
C          11.37976         1.72751        -4.30890
C          12.11812         2.18948        -5.28829
C          12.84263         2.56470        -6.17410
C          13.39048         2.85003        -7.31485
C          12.32121         2.67101        -8.28879
C          10.89564         2.85862        -8.04605
S           9.55126         1.47648        -6.79391
S           7.34140         0.58965        -5.15685
H           1.05299        -0.43513         0.79601
H           0.88372        -0.69111        -0.90849
H           0.95201         0.96669        -0.23646
H           3.26640         0.66096        -2.35433
H           4.85401         1.57101        -3.15695
H           7.36377         0.87300        -1.29953
H           7.08862         2.27329        -3.82822
H           9.62602         0.96419        -2.28470
H           9.34378         2.35348        -4.83965
H          11.90905         1.33472        -3.46775
H          14.39142         3.34339        -7.41713
H          12.12067         2.04430        -9.22514
H          11.87462         3.50931        -9.01722

