%chk=CNqOrNdC1CdCCdC2CdCCdCNdNCdC2C1.chk
%NProcShared=20
# opt freq b3lyp/6-31g(2df,p)

Title Card Required 

0  1
C           1.27423         0.16948        -0.12185
N           2.76522         0.30313        -0.11171
O           3.30383        -0.73766         0.75367
N           3.53068         0.70008        -1.27514
C           4.86719         0.66373        -1.32723
C           5.70308         0.22194        -0.16439
C           6.85127        -0.41902        -0.33888
C           7.31016        -1.05181        -1.56044
C           7.28211        -0.85027        -2.89283
C           7.49606        -2.12185        -3.62283
C           6.76352        -2.28708        -4.70136
C           7.13082        -2.92701        -5.96062
C           6.99976        -1.99411        -6.93184
N           7.94403        -0.97693        -6.99337
N           8.13820        -0.14013        -6.02452
C           7.23027         0.54597        -5.09200
C           6.85000         0.36697        -3.70429
C           5.85110         1.28615        -2.67413
H           0.87441        -0.46230         0.69787
H           0.86306        -0.27001        -1.03737
H           0.79785         1.14208         0.04856
H           2.57948        -0.99722         1.35679
H           5.31561         0.35209         0.84876
H           7.33380        -0.78963         0.57307
H           7.71666        -2.01451        -1.23480
H           8.20967        -2.85816        -3.23431
H           6.02313        -1.50128        -4.90188
H           8.07151        -3.47445        -5.86739
H           6.01747        -1.54448        -7.10849
H           6.97191         1.47622        -5.60558
H           5.25082         2.02435        -3.22574
H           6.57786         1.93227        -2.12854

