%chk=COC1dC2CdCdCCdCdCdCCdCC1dC2.chk
%NProcShared=20
# opt freq b3lyp/6-31g(2df,p)

Title Card Required 

0  1
C           2.24712        -0.13687         0.03646
O           4.31262        -0.38634         0.13553
C           6.12990        -0.92278        -0.18385
C           5.55964        -0.48096        -1.27986
C           5.44127        -1.31585        -2.36387
C           6.67408        -1.47908        -2.53778
C           7.93715        -1.64995        -2.47259
C           8.52622        -2.62536        -1.13690
C           9.48174        -2.00369        -0.03297
C          10.32661        -0.88594         0.27141
C          11.77311        -0.83289        -0.25098
C          11.86311        -2.17016        -1.58448
C          10.31810        -1.38546        -1.61786
C           8.19150        -0.61270        -0.68029
C           6.95445         0.09465        -0.50507
H           1.12153         0.48214         0.90859
H           1.03772        -1.01584         0.08656
H           1.09658         0.48705        -0.78588
H           4.68981        -1.71852        -2.98508
H           8.56644        -0.96941        -3.04515
H           8.08641        -2.43611        -0.05755
H          13.09647        -0.80649        -0.17499
H          12.88525        -3.15631        -2.13439
H          11.90288        -1.88260        -1.31821
H           6.67850         0.67126         0.47141

