%chk=COC1dCCdCCdCqONCCdOrC2COCN12.chk
%NProcShared=20
# opt freq b3lyp/6-31g(2df,p)

Title Card Required 

0  1
C           2.77149        -0.52554        -1.13976
O           4.20815        -1.33245        -2.24181
C           6.05498        -1.40294        -2.60940
C           5.91648        -0.42833        -1.71737
C           5.44881         0.63704        -2.64311
C           6.64605         1.17822        -2.67111
C           7.33462         0.99945        -3.84171
C           8.60971         0.66546        -3.62836
O           9.48238         0.12289        -2.64973
N           8.90240        -0.10102        -1.37533
C           9.87568         0.01270        -0.33431
C           9.09597         0.12170         0.95844
O           9.64445         0.20249         2.05434
C           8.59396        -0.08350        -4.77711
C          10.14227         0.49706        -4.94199
O          10.37862        -0.67963        -5.60030
C           9.41264        -1.88263        -4.61674
N           7.65290        -1.42947        -3.96748
H           2.46242        -0.36199         0.13621
H           1.77552        -1.19674        -1.14167
H           2.02992         0.49575        -1.37986
H           5.29065        -0.19289        -0.79102
H           4.88603         0.29778        -3.56899
H           7.27341         0.81969        -1.84601
H           6.75157         0.38865        -4.66918
H           8.44612        -1.01192        -1.42867
H          10.46362         0.92245        -0.47076
H          10.48570        -0.88940        -0.32311
H           7.98841         0.12340         0.88755
H           8.32869        -0.14001        -5.86685
H          11.00355         0.64744        -4.21103
H          10.25557         1.46548        -5.54646
H          10.48827        -1.96765        -4.12924
H           9.57583        -2.31672        -5.69190

