%chk=COC1dCqCrCdCCdCCdCSCdC1.chk
%NProcShared=20
# opt freq b3lyp/6-31g(2df,p)

Title Card Required 

0  1
C           1.21682         0.15045         0.19838
O           3.05317         0.67828         0.91039
C           4.49259         1.57384         2.11700
C           4.65125         0.72577         0.97540
C           5.20546        -0.05481        -0.07854
C           5.43636         1.34728         1.81266
C           6.69584         1.31931         1.76373
C           7.57667         1.99683         2.59635
C           8.64180         1.91737         2.77134
C           8.06320         3.38536         4.72914
C           9.40423         2.74170         3.70831
S          10.55071         3.69701         4.97746
C           8.63203         2.86437         3.69835
C           6.43912         2.48657         3.33222
H           0.64324        -0.57154        -0.77590
H           0.58303         1.05066        -0.07582
H           0.58303        -0.37388         0.97982
H           4.45878        -0.52448        -0.71240
H           5.78777        -0.79534         0.42200
H           5.78776         0.63963        -0.64139
H           5.54406         1.95023         2.62388
H           7.19137         0.84748         1.14039
H           7.01673         3.06605         4.08562
H           9.45474         1.63891         2.20421
H           8.80590         3.84772         5.19071
H          10.99147         2.49244         3.35789
H          10.42796         3.21827         4.30260
H           4.75363         2.51379         3.40164

