%chk=COC1dCCdCCdCCdCCdCNdCCdCCdC1.chk
%NProcShared=20
# opt freq b3lyp/6-31g(2df,p)

Title Card Required 

0  1
C           2.35959         0.75273         0.12820
O           4.50931         2.01233         0.50273
C           6.37871         3.74377         1.01755
C           5.43754         1.96677         0.48918
C           5.45435         3.10580         0.82786
C           6.97742         2.24309         0.57134
C           7.89949         3.35396         0.90164
C           9.00441         3.57841         0.96838
C           9.96901         4.64273         1.28484
C          10.97944         4.47334         1.23448
C          11.54078         5.26434         1.46967
C          12.64032         5.59139         1.56691
N          12.30143         7.60537         2.16574
C          14.26078         7.55579         2.15100
C          14.88848         8.94534         2.56417
C          13.63604         7.33439         2.08517
C          11.02612         6.42501         1.81478
C           8.73245         5.35497         1.49662
H           1.04081        -0.62023        -0.28003
H           0.82117         0.84196        -0.73522
H           0.82117         0.35572         0.90011
H           5.09577         0.44453         0.03656
H           3.78675         2.98766         0.79273
H           7.24046         1.41339         0.32464
H           7.70504         4.30461         1.18431
H           9.34648         2.79011         0.73399
H           9.44188         6.22987         1.75675
H          11.50717         3.94285         1.07674
H          10.16280         6.87138         1.94750
H          13.55778         5.30027         1.48035
H          15.65473         6.59221         1.86449
H          15.21286        10.66738         3.07619
H          15.57555         7.74387         2.20692
H          13.04903         6.66379         1.88578
H           7.01175         5.61167         1.57294

