%chk=COC1CNdC2CdCCqdOrCdNNNOCdC1CdC2.chk
%NProcShared=20
# opt freq b3lyp/6-31g(2df,p)

Title Card Required 

0  1
C           1.21172         0.06690        -0.27934
O           2.59570         0.34301        -0.78095
C           3.24776        -0.19535        -2.24545
C           2.42051        -1.73454        -2.35654
N           2.98291        -2.31807        -3.55990
C           2.99577        -1.58272        -4.62444
C           4.03041        -1.94065        -5.63455
C           4.30440        -1.26532        -6.74315
C           5.32067        -1.75154        -7.71750
O           6.09297        -2.66349        -7.52219
C           5.29314        -0.99651        -8.99318
N           6.16050        -0.88284        -9.95172
N           5.93054         0.48558       -10.17715
N           6.40742         1.10748        -8.47507
O           5.08937         1.03099        -7.02850
C           4.81253         1.15494        -5.23811
C           3.73918         0.75470        -3.88435
C           2.30577         0.72105        -4.14812
C           2.12611        -0.35468        -4.91112
H           0.97250         0.27369         0.81586
H           0.80560        -0.94959        -0.40521
H           0.60780         0.79658        -0.80276
H           4.20068        -0.36312        -1.74330
H           1.30010        -1.74262        -2.29867
H           2.59584        -2.46053        -1.50713
H           4.61088        -2.82568        -5.43875
H           3.77409        -0.34930        -6.96465
H           4.57852        -0.15344        -8.94941
H           6.53521         0.82333       -10.97384
H           7.15725         0.27742        -8.77764
H           4.02025         2.01455        -5.47961
H           1.63898         1.58017        -4.23119
H           2.15131         0.04961        -5.91538

