%chk=COC1dCqOCCCOrCdCCdCCdCCq[C]dNNOrS1.chk
%NProcShared=20
# opt freq b3lyp/6-31g(2df,p)

Title Card Required 

0  2
C           1.39080        -0.39181         0.14198
O           3.02826        -1.41741         0.32763
C           4.26918        -2.98142         0.60470
C           4.82349        -1.41267         0.32611
O           5.09690        -0.04847         0.08336
C           4.42319         1.21938        -0.15863
C           5.41969         2.39306        -0.37744
C           4.68344         3.70389        -0.61962
O           5.59690         4.77273        -0.82772
C           5.91110        -2.03598         0.45614
C           7.14633        -2.03446         0.45470
C           7.85082        -3.12972         0.66535
C           9.06881        -3.32561         0.65419
C           9.07631        -4.94413         0.82368
C          10.41020        -4.59651         0.92614
C           8.92470        -5.23695         1.36592
C          10.96375        -5.95989         1.16878
N          12.41746        -6.47486         1.26727
N          14.32412        -6.48553         1.27943
O          15.72290        -7.63736         1.49917
S           6.16604        -4.67013         0.89831
H           0.97486         0.90351        -0.09938
H           0.73027        -0.39179         1.06156
H           0.72930        -0.72354        -0.71346
H           3.80995         1.48663         0.70424
H           3.80997         1.15592        -1.05956
H           6.07539         2.18883        -1.23217
H           6.07549         2.50965         0.49337
H           4.04738         3.94577         0.23597
H           4.05074         3.61795        -1.50758
H           6.15249         4.85780        -0.03348
H           5.78074        -2.95555         0.68247
H           7.41166        -1.09911         0.27225
H           7.70890        -4.12535         0.86155
H           9.60697        -2.45546         0.52590
H           8.31984        -6.44196         1.16102
H          11.22184        -3.85059         0.80747
H           9.66658        -6.56509         1.32497
H          15.20881        -5.79038         1.15196
H          15.56395        -8.59123         1.67723

