%chk=COCC1dCCdCCdCC2dC1C2CN.chk
%NProcShared=20
# opt freq b3lyp/6-31g(2df,p)

Title Card Required 

0  1
C           1.06658         0.06439         0.02849
O           2.49388        -0.00043         0.05924
C           3.01727        -0.81546        -1.00195
C           4.55806        -0.91827        -0.93742
C           5.18521         0.22876        -1.30347
C           6.60209         0.37075        -1.49141
C           7.25571        -0.30506        -2.44860
C           6.56896        -1.13824        -3.42573
C           5.80529        -2.19953        -3.11865
C           5.65927        -2.72666        -1.81992
C           5.14536        -2.30325        -0.70348
C           6.58193        -3.35836        -0.99783
C           7.20276        -4.33073        -2.08799
N           7.90891        -5.53361        -1.62101
H           0.71689         0.65889         0.87979
H           0.63972        -0.93908         0.11564
H           0.70415         0.54373        -0.88860
H           2.71403        -0.33992        -1.95121
H           2.55282        -1.80374        -0.97727
H           4.60625         1.11698        -1.58593
H           7.10887         1.04242        -0.80391
H           8.33678        -0.23859        -2.50268
H           6.62639        -0.82992        -4.46116
H           5.27607        -2.77825        -3.86256
H           6.42435        -4.01815        -0.13835
H           7.94682        -3.76150        -2.66471
H           6.46531        -4.71839        -2.81380
H           8.70017        -5.26899        -1.04097
H           8.33610        -5.99062        -2.43793

