%chk=COCCqdOrC1CSCC1dCd[SH]S.chk
%NProcShared=20
# opt freq b3lyp/6-31g(2df,p)

Title Card Required 

0  1
C           0.88172        -0.05946        -0.00640
O           2.29935        -0.06371        -0.02378
C           2.82339        -1.12866         0.75108
C           4.35215        -1.14221         0.75805
O           5.02921        -0.29026         0.16864
C           5.04393        -2.26262         1.52969
C           4.59078        -2.26589         2.98689
S           5.10501        -3.87504         3.60511
C           4.79470        -4.71213         2.02524
C           4.80642        -3.65194         0.95307
C           4.65921        -3.91521        -0.32184
S           4.48902        -4.13082        -1.89527
S           3.03931        -5.54356        -1.96076
H           0.53458         0.78208        -0.60928
H           0.51238         0.06189         1.01681
H           0.49798        -0.98893        -0.43701
H           2.46698        -2.08209         0.34876
H           2.47045        -1.00553         1.77872
H           6.12373        -2.05268         1.49716
H           3.50524        -2.21226         3.10363
H           5.02969        -1.44877         3.56732
H           3.81122        -5.18744         2.07588
H           5.56636        -5.46991         1.87215
H           5.53289        -4.88741        -2.16515
H           1.96627        -4.77568        -1.71799

