%chk=CONCC1dCCdCCdCCdNCdCCdNCdCNdC1.chk
%NProcShared=20
# opt freq b3lyp/6-31g(2df,p)

Title Card Required 

0  1
C           1.00530         0.02912        -0.10206
O           2.54210         0.09582        -0.11524
N           3.62471         1.90070        -0.29144
C           5.56385         3.20500        -0.43355
C           7.14564         5.37480        -0.67431
C           6.43664         3.52258        -0.47641
C           7.08468         4.54291        -0.58758
C           8.58957         4.47447        -0.57942
C           8.89736         5.72109        -0.71410
C          10.06978         6.08619        -0.75340
C          10.70157         7.47609        -0.90321
N          11.90737         7.53899        -0.91000
C          12.43705         8.87280        -1.05373
C          13.64278         8.91642        -1.05849
C          12.41863         9.54664        -1.12554
N          14.09642        10.40539        -1.21897
C          14.61778        11.87648        -1.37794
C          13.11521        10.63144        -1.24425
N          10.86019         9.07533        -1.07607
C           9.07347         7.53298        -0.90905
H           0.62694        -1.00291         0.01070
H           0.62335         0.41901        -1.03144
H           0.62321         0.60784         0.72546
H           2.59496         1.90229         0.51857
H           4.99729         1.47652        -0.89690
H           4.99683         1.61054         0.37319
H           6.91513         2.20691        -0.33559
H           5.68491         5.40024        -0.67954
H           8.81370         3.62438        -0.48817
H           8.10142         6.30578        -0.77730
H          10.66253         5.40829        -0.68039
H           9.69698         8.69821        -1.03496
H          11.35404        10.34475        -1.21248
H          14.44775         8.64676        -1.02952
H          12.67675        11.65399        -1.35336
H          15.04279        13.36154        -1.53775
H          14.98162        11.27733        -1.31322
H           7.33331         7.24268        -0.87831

