%chk=CSC1dCCdCC1dCdCSCd[SH]S.chk
%NProcShared=20
# opt freq b3lyp/6-31g(2df,p)

Title Card Required 

0  1
C           1.12893         0.06509         0.01445
S           2.93531         0.13453        -0.04424
C           3.35333        -0.40631         1.52048
C           3.85642         0.35914         2.51360
C           4.15396        -0.47683         3.66872
C           3.85959        -1.75913         3.38073
C           3.34755        -1.77830         2.02040
C           2.96662        -2.85423         1.38383
C           2.60230        -3.91386         0.71709
S           1.28920        -4.88808         1.29241
C           1.14498        -6.17303         0.11959
S          -0.07956        -7.41896         0.57906
S          -0.18093        -8.58563        -1.08059
H           0.73710         0.35008        -0.96709
H           0.73500         0.76881         0.75314
H           0.76738        -0.94129         0.24221
H           4.04163         1.42353         2.48612
H           4.54477        -0.10360         4.60488
H           3.96519        -2.60993         4.03317
H           3.10727        -4.15439        -0.21319
H           1.74842        -6.24658        -0.79631
H          -1.20096        -6.74031         0.44478
H           0.99532        -9.22950        -0.99751

