%chk=CSC1dc2nncqdCdOrcc2NdC1.chk
%NProcShared=20
# opt freq b3lyp/6-31g(2df,p)

Title Card Required 

0  1
C           0.95858         0.02714         0.19097
S           2.73071         0.01857         0.11196
C           3.42424         0.18021         1.64172
C           4.73884         0.20235         1.85133
N           5.72197         0.10236         0.91188
N           6.93083         0.13845         1.22815
C           7.34679         0.28079         2.52972
C           8.63942         0.30569         2.71184
O           9.80625         0.32354         2.83249
C           6.35484         0.39259         3.59411
C           5.06209         0.35115         3.23941
N           3.87895         0.42528         3.94606
C           2.94369         0.32705         3.02449
H           0.60208        -0.08222        -0.84201
H           0.57355         0.97292         0.57290
H           0.57348        -0.81764         0.76251
H           6.71326         0.50361         4.61119
H           1.86017         0.34941         3.23747

