%chk=CSC1dCC2dCC2dCCdCC1dS.chk
%NProcShared=20
# opt freq b3lyp/6-31g(2df,p)

Title Card Required 

0  1
C           1.10582        -0.00900        -0.28945
S           2.83257        -0.00871         0.02259
C           3.01394        -0.00708         1.81473
C           4.39116        -0.00688         2.02823
C           5.18078        -0.00579         3.21949
C           6.25128        -0.00517         3.90093
C           5.08684        -0.00443         4.72005
C           3.77055        -0.00435         4.80253
C           2.51084        -0.00380         5.40371
C           1.50491        -0.00463         4.49810
C           1.55765        -0.00613         2.85468
S          -0.10667        -0.00656         2.38146
H           0.82790        -0.00995        -1.33847
H           0.71884         0.91669         0.13775
H           0.71884        -0.93390         0.13944
H           5.09743        -0.00765         1.18155
H           7.30562        -0.00528         3.78825
H           3.36919        -0.00522         3.84654
H           2.34326        -0.00283         6.47082
H           0.48698        -0.00425         4.90842

