%chk=CSCqCrCCC[N+]1q[O-]rCdNNdCS1.chk
%NProcShared=20
# opt freq b3lyp/6-31g(2df,p)

Title Card Required 

0  1
C           0.95079         0.05066        -0.05842
S           2.74579        -0.03873        -0.22323
C           3.28204         0.47915         1.44793
C           2.73899        -0.43040         2.55599
C           4.82709         0.46192         1.39897
C           5.36723         0.90119         2.73417
C           6.87482         1.05599         2.85952
N           7.15468         1.64333         4.23479
O           5.99096         2.09849         4.82559
C           7.76562         0.67688         5.13423
N           8.25494         0.97053         6.30337
N           8.06646         2.29059         6.78642
C           7.99991         3.26735         5.93980
S           8.16549         3.03698         4.20611
H           0.51784        -0.24441        -1.01727
H           0.62148         1.06624         0.17450
H           0.58718        -0.64824         0.69698
H           2.93672         1.50659         1.62982
H           3.11197        -1.45331         2.44330
H           1.64796        -0.44608         2.58914
H           3.04166        -0.08012         3.55022
H           5.18977         1.16098         0.63457
H           5.21006        -0.53645         1.16016
H           5.06532         0.19768         3.51835
H           4.88467         1.86490         2.94041
H           7.28381         1.70586         2.07718
H           7.37585         0.08211         2.77677
H           7.85491        -0.37351         4.80354
H           7.76463         4.28295         6.30160

