%chk=CSN1CCqCrqCrCd[SH]SC[SH]dCS1.chk
%NProcShared=20
# opt freq b3lyp/6-31g(2df,p)

Title Card Required 

0  1
C           0.75483        -0.35744        -0.05243
S           2.30186        -0.90358        -0.74124
N           3.48302        -1.36169         0.33084
C           3.93361        -0.88653         1.67228
C           3.80686         0.58376         2.16853
C           2.44211         1.20077         1.94777
C           4.04156         0.66418         3.69417
C           4.88793         1.41965         1.50335
S           4.53664         2.09613        -0.12913
S           6.37971         2.64818        -0.70839
C           6.76727         1.36521        -1.93075
S           6.91323        -0.31368        -1.23682
C           5.21726        -0.77578        -1.53492
S           4.65781        -2.14309        -0.60724
H           0.64203         0.71952        -0.23880
H           0.59234        -0.57918         0.99924
H          -0.04863        -0.82287        -0.62978
H           5.01928        -1.09515         1.73082
H           3.53081        -1.57344         2.43263
H           1.66541         0.55502         2.38980
H           2.23536         1.36524         0.90625
H           2.35970         2.18656         2.41144
H           3.28697         0.06544         4.23039
H           3.92659         1.70000         4.04337
H           5.02954         0.32721         4.00494
H           5.87815         1.50592         1.97829
H           3.94921         3.21757         0.21777
H           7.74450         1.60505        -2.35418
H           6.04180         1.38460        -2.75077
H           6.82502        -0.04674         0.04667
H           4.54221        -0.21126        -2.19744

