%chk=CtCCqdCdOrC1dCCdCCdCNNNdN1.chk
%NProcShared=20
# opt freq b3lyp/6-31g(2df,p)

Title Card Required 

0  1
C           1.01706        -0.07435         0.06466
C           2.32092        -0.07435         0.06466
C           3.84092        -0.07435         0.06466
C           4.50546         0.07329         1.20502
O           5.10007         0.20490         2.22149
C           5.12617        -0.32440        -1.86659
C           6.11518        -0.21795        -1.04446
C           7.13740        -0.31125        -1.76504
C           8.35917        -0.33801        -1.97170
C           8.93528        -0.48831        -3.13261
C          10.05950        -0.57342        -3.78999
N          10.58857        -0.79589        -5.50824
N          10.51647        -0.64513        -4.34378
N           8.32621        -0.69559        -4.73352
N           6.47910        -0.55390        -3.63921
H          -0.04227        -0.07433         0.06481
H           6.48793        -0.09794        -0.11753
H           7.49036        -0.42073        -2.61065
H           8.88583        -0.23999        -1.21463
H           7.61955        -0.58466        -3.87674
H          10.88524        -0.44237        -2.77774
H          10.10415        -0.90191        -6.32712
H          11.99988        -0.64837        -4.36886

