%chk=CtCC[C]qNrC1dNCdCCdCCdCCdCqNrNCdCCdC1.chk
%NProcShared=20
# opt freq b3lyp/6-31g(2df,p)

Title Card Required 

0  2
C           0.93740        -0.05385        -0.05641
C           2.24126        -0.05385        -0.05641
C           3.76126        -0.05385        -0.05641
C           6.18329         1.44495         0.45583
N           4.24881         1.72011         1.47236
C           8.90512         2.56359         0.69835
N           7.00361         2.73198         0.69441
C           8.12914         2.39811         0.61803
C           8.72060         4.10257         1.06431
C          10.11481         3.78722         0.97617
C          10.59602         5.00347         1.30902
C          12.36835         5.09050         1.33057
C          12.31276         6.14513         1.61851
C          13.78646         6.20721         1.62775
C          14.43869         7.18537         1.89331
N          14.38311         8.31568         2.20598
N          15.60668         6.75343         1.76893
C          16.60045         7.93001         2.18463
C          15.91136         6.23095         1.62384
C          13.92213         4.66275         1.24468
C          11.57991         3.70584         0.99606
H          -0.08946        -0.05389        -0.05649
H           4.12652        -0.31225        -1.04000
H           4.12460        -0.77555         0.66226
H           2.82268         1.67092         1.61816
H           4.13573         2.63136         1.91500
H           8.45068         1.30951         0.31054
H           7.94744         4.56393         1.19116
H          11.54976         2.56120         0.64727
H          10.17876         5.74799         1.51160
H          13.05139         3.79268         0.97964
H          12.43658         6.93085         1.83171
H          15.08529         4.91731         1.27505
H          13.44384         8.24736         2.18704
H          14.95184         9.05231         2.40426
H          17.07444         5.85613         1.53035
H          16.83621         9.12303         2.36948
H          17.81158         6.93454         1.83075
H          15.76805         5.50470         1.46257
H          10.49802         2.46176         0.62315

