%chk=CtCCNN1CdCCdCCdC2CdCCdCCdCCdC1S2.chk
%NProcShared=20
# opt freq b3lyp/6-31g(2df,p)

Title Card Required 

0  1
C           1.04296         0.00212        -0.09028
C           2.34681         0.00212        -0.09028
C           3.86681         0.00212        -0.09028
N           6.55568        -1.14828         0.98858
N           9.44476        -2.23532         2.04133
C           7.50662        -2.36079         2.28118
C           8.40095        -1.76572         1.71466
C           8.55194        -3.06313         3.07372
C          10.23891        -3.17061         3.20367
C          10.78319        -4.01236         3.98559
C          12.10679        -3.74417         3.77071
C          12.46602        -4.75217         4.72445
C          13.55551        -4.83188         4.93159
C          14.42985        -5.98284         5.99522
C          15.06645        -5.36575         5.37440
C          16.25721        -6.33950         6.33135
C          16.45816        -5.25642         5.18664
C          14.33569        -4.25449         3.99128
C          11.97089        -3.28232         3.06472
S          13.12087        -2.45188         2.42678
H           0.01382         0.00222        -0.09029
H           4.25159         0.97458         0.17895
H           4.24891        -0.27897        -1.06058
H           5.10970        -1.74635         0.91609
H           6.09545        -2.52384         2.47351
H           8.54635        -1.09626         1.02838
H           7.97344        -3.58182         3.53456
H          10.91803        -2.14806         2.11936
H          10.15102        -4.43465         4.40170
H          12.24355        -5.37962         5.35967
H          14.09466        -3.36169         3.48964
H          14.21307        -6.56554         6.54722
H          16.24015        -4.36088         4.34440
H          16.56980        -7.10933         7.11455
H          18.36939        -5.71818         5.69749
H          16.08168        -5.08168         4.97797

