%chk=NC12CdCCdC1CdCCdCNdCC2dO.chk
%NProcShared=20
# opt freq b3lyp/6-31g(2df,p)

Title Card Required 

0  1
N           0.32113         1.00487         0.12122
C           1.57092         0.49891         0.65877
C           2.44973         1.08582        -0.36663
C           2.73668         0.07842        -1.10614
C           1.81657        -1.19097        -0.45898
C           0.90184        -0.85041         0.61208
C          -0.55969        -1.13458         1.75297
C          -1.30972        -0.76916         2.95934
C          -1.11818         0.72083         3.10328
C           0.03158         0.87880         3.76685
N           1.07681         1.02006         2.91558
C           2.11410         0.39618         3.03762
C           2.69363         0.32723         1.72213
O           3.90307         0.06942         1.62290
H           0.30679         0.74649        -0.88845
H           0.17089         1.93076         0.41247
H           2.73998         2.15996        -0.38543
H           3.40891         0.30892        -1.97144
H           2.16678        -1.96992        -1.12468
H          -1.58778        -1.13965         1.25671
H          -1.65776        -0.50403         4.05084
H          -1.42350         1.17391         2.14722
H           0.24520         0.19636         4.58832
H           2.64705        -0.13085         3.87553

