%chk=Nc1ccc2cqCdSrccc3scd3sc1-2.chk
%NProcShared=20
# opt freq b3lyp/6-31g(2df,p)

Title Card Required 

0  1
N           1.03324        -0.40369         0.01212
C           2.38250        -0.60493         0.02186
C           3.09291         0.70321         0.02679
C           4.40721         0.53375         0.03424
C           4.65833        -0.87576         0.03402
C           5.91603        -1.33686         0.04594
C           7.26905        -0.77157         0.05917
S           7.79888         0.79988         0.06518
C           5.93880        -2.72713         0.05472
C           6.58747        -3.82243         0.05295
C           5.60096        -4.84173         0.06516
S           5.82711        -6.38347        -0.00536
C           4.27297        -5.10648         0.10498
S           3.00250        -3.65786        -0.03706
C           3.30641        -1.66327         0.02411
H           0.67367         0.55564         0.02646
H           0.36292        -1.15208         0.02711
H           2.68025         1.70855         0.02104
H           5.13481         1.32236         0.03867
H           8.03202        -1.56882         0.06751
H           4.93572        -2.94721         0.09107
H           7.67232        -3.88447         0.05256

