%chk=Nc1cnc2ccccnccncc1-2.chk
%NProcShared=20
# opt freq b3lyp/6-31g(2df,p)

Title Card Required 

0  1
N           1.24955        -0.40070        -0.02735
C           2.58836        -0.91334        -0.13895
C           3.38569         0.57503        -0.03630
N           4.63483         0.35304        -0.02672
C           4.76528        -1.03035        -0.10029
C           6.00640        -1.43316        -0.02215
C           6.07737        -2.78443         0.09725
C           7.11806        -3.56485         0.05409
C           6.83608        -4.85529         0.60193
N           7.57193        -5.90242         0.72169
C           6.79130        -7.04105         0.53621
C           6.35560        -6.70913        -0.73646
N           4.99397        -5.60317        -0.67370
C           4.06715        -4.14884        -0.55294
C           3.59307        -2.26301        -0.33160
H           0.96920         0.62925        -0.00528
H           0.43858        -0.98126        -0.01374
H           2.91336         1.67529        -0.00867
H           6.86617        -0.82438         0.04563
H           5.17660        -3.16566         0.49632
H           8.07856        -3.19639        -0.05939
H           5.80822        -4.99718         0.93298
H           6.03956        -7.86304         0.45209
H           7.73229        -7.18967        -0.64412
H           3.11607        -4.59878        -0.15947

