%chk=Nc1cc2ccccqdOrc-2cs1.chk
%NProcShared=20
# opt freq b3lyp/6-31g(2df,p)

Title Card Required 

0  1
N           0.78123        -0.17848        -0.02284
C           2.14266        -0.10835        -0.01032
C           2.90481        -1.21798         0.06675
C           4.35790        -1.21022         0.00572
C           5.06193        -2.36079        -0.01717
C           6.48180        -2.36950        -0.30657
C           7.23267        -1.26364        -0.22300
C           6.58443         0.04204         0.01527
O           7.26313         1.05339         0.18873
C           5.09603         0.04491        -0.03973
C           4.50215         1.24239        -0.09580
S           2.80694         1.51529        -0.12553
H           0.27773        -1.04964         0.02122
H           0.29874         0.71137        -0.07564
H           2.42012        -2.19087         0.11187
H           4.59473        -3.33153         0.13662
H           6.92426        -3.30316        -0.64256
H           8.29942        -1.24610        -0.39838
H           5.10899         2.14255        -0.12600

