%chk=NC1dCNdCCdCCdCSCdCqCdOrSSC1.chk
%NProcShared=20
# opt freq b3lyp/6-31g(2df,p)

Title Card Required 

0  1
N           2.70855        -0.18804         0.35414
C           4.18855        -0.28945         1.28663
C           3.72378         0.95521         1.42893
N           4.60024         1.74156         0.87184
C           5.18559         2.21037         1.89079
C           6.57074         2.34259         1.63428
C           7.20652         2.89557         2.60974
C           8.52587         2.93558         2.07377
C           9.31234         3.70231         2.77491
S          10.91689         3.70285         2.18794
C          11.55231         4.27028         3.82148
C          12.07945         3.14153         4.35630
C          13.87249         3.19821         3.86168
O          14.14796         2.54558         2.85215
S          10.40618         1.62376         4.28719
S           8.24562         0.35829         2.97911
C           6.32811         0.01907         1.56482
H           1.83968         0.37701         0.73844
H           2.08017        -0.69042        -0.33380
H           2.77827         1.47887         1.70208
H           4.65955         2.36547         2.84823
H           7.30642         1.72069         1.01289
H           6.73003         3.18807         3.53450
H           9.02571         2.06585         1.43438
H           8.97839         3.87233         3.82536
H          10.84578         4.63388         4.61519
H          14.92438         3.79534         4.31354
H           6.56216        -0.78599         0.89104
H           6.44966         0.52905         0.55043

