%chk=NC1dCC2dCCqdSrCqdCCdCCdC2rCdCCdCCdCCdC1.chk
%NProcShared=20
# opt freq b3lyp/6-31g(2df,p)

Title Card Required 

0  1
N           3.52475         0.04749         0.55221
C           5.88554         0.12345         1.19213
C           3.86207         0.13932         1.32488
C           5.15043         0.09949         0.99981
C           5.49067         0.30233         2.69848
C           6.79997         0.28921         2.58729
S           8.06848         0.02745         0.38362
C           7.54859         0.44837         3.92716
C           6.98954         0.57510         4.99412
C           5.75325         0.59851         5.19103
C           4.62936         0.66429         5.74447
C           3.73739         0.44921         3.95560
C           4.38088         0.23977         2.13452
C           8.81981         0.45666         3.99697
C           9.53867         0.58262         5.05739
C          10.74176         0.58127         5.04599
C          11.39486         0.72093         6.22172
C          12.71266         0.70522         6.08947
C          12.29274         0.54220         4.71707
C          10.35220         0.37546         3.31329
C           8.23113         0.24720         2.23362
H           1.83179         0.07240         0.76204
H           2.00648        -0.04379        -0.21615
H           2.74506         0.23387         2.12134
H           5.07348         0.38455         3.39015
H           7.56074         0.66990         5.79211
H           5.35479         0.51067         4.45166
H           5.33338         0.79365         6.83405
H           3.08886         0.62138         5.37978
H           4.92887         0.01756         0.30918
H           9.50153         0.26992         2.42491
H           9.29207         0.68822         5.94638
H          11.65636         0.38612         3.40308
H          11.52666         0.83573         7.18819
H          13.85703         0.58844         5.10633
H          13.17634         0.73310         6.32417
H          11.95745         0.49719         4.33821
H           6.83960         0.12891         1.23768

