%chk=NC1dCCdCNdc2ncccc2dCCdNS1.chk
%NProcShared=20
# opt freq b3lyp/6-31g(2df,p)

Title Card Required 

0  1
N           1.25495        -0.25405        -0.29078
C           2.64021        -0.48058        -0.21230
C           3.33803        -0.89555         0.88680
C           4.82956        -0.92776         0.86861
C           5.62039        -1.95439         1.26263
N           6.93507        -2.09962         0.85498
C           7.38104        -3.29009         0.51081
N           8.73294        -3.42202         0.27363
C           9.31463        -4.51685         0.68489
C           8.62170        -5.65788         1.31755
C           7.29524        -5.71613         1.10128
C           6.60443        -4.59406         0.42379
C           5.34416        -4.57627        -0.08903
C           4.79963        -3.38633        -0.92691
N           3.56905        -2.95399        -0.97888
S           3.36581        -1.37129        -1.71532
H           0.69276        -0.89174         0.26392
H           0.94755         0.71024        -0.13064
H           2.83440        -1.73205         1.38330
H           5.29476        -0.14335         0.27624
H           5.15586        -2.78880         1.77964
H          10.40152        -4.65519         0.52945
H           9.22445        -6.41093         1.82396
H           6.75883        -6.60248         1.42609
H           4.66036        -5.39440         0.11590
H           5.59640        -2.81367        -1.43526

