%chk=NC1dCC2dCNdCqOrCqdCdCCdC1rNCdCCdC2.chk
%NProcShared=20
# opt freq b3lyp/6-31g(2df,p)

Title Card Required 

0  1
N           1.78386        -0.08704        -0.06001
C           3.66653         0.03906        -0.13942
C           4.42168         1.27661        -0.35941
C           6.30484         1.79274        -0.17701
C           5.52482         2.59412        -0.89587
N           6.57232         2.54159        -1.56437
C           7.25913         3.49029        -1.89478
O           6.65634         4.64025        -1.98816
C           8.56514         2.98845        -2.28602
C           9.10904         1.55730        -1.72755
C           8.97475         0.38042        -0.71142
C           7.24026        -0.52997        -0.34338
C           5.45765        -0.74564        -0.10068
N           9.19400         4.25753        -2.36088
C          10.46919         3.85931        -2.34522
C          10.99323         4.72545        -1.54847
C           9.81192         3.50893        -0.42958
C           8.29533         2.64404        -0.05561
H           0.89415         0.69262        -0.32410
H           0.87441        -0.79791         0.28948
H           3.19159         1.83372        -0.72877
H           4.60615         2.98210        -1.36808
H           5.71851         4.40297        -1.88933
H          10.21229         0.62451        -0.02977
H           8.38012        -1.16711        -0.54940
H           4.44660        -1.56499         0.29663
H           8.91120         5.32593        -2.33907
H          11.25684         2.88749        -1.80896
H          11.15021         5.82133        -2.40539
H          11.32234         3.93358        -0.64824
H           7.84116         1.41729         0.20734

