%chk=NC1dCCdCCdCNdC1CqNrdCCNO.chk
%NProcShared=20
# opt freq b3lyp/6-31g(2df,p)

Title Card Required 

0  1
N           1.08739        -0.10314        -0.18463
C           2.46545        -0.09107        -0.09847
C           3.19321        -1.03246         0.51710
C           4.64253        -1.02948         0.62476
C           5.31735        -0.07704         1.28479
C           4.64785         1.04124         1.91899
C           3.94172         1.95251         1.22613
N           3.86748         2.01475        -0.14737
C           3.21940         1.06035        -0.77376
C           3.21149         1.06261        -2.31816
N           3.86859         2.10753        -2.93199
C           2.58887         0.09009        -3.01489
C           2.54111         0.04333        -4.50440
N           1.78543        -1.11485        -4.98458
O           1.72884        -0.94164        -6.43085
H           0.57997        -0.70900         0.44934
H           0.63444         0.74673        -0.50250
H           2.69785        -1.86339         1.01367
H           5.17109        -1.84202         0.13380
H           6.40194        -0.10183         1.34466
H           4.67943         1.07372         3.00432
H           3.41837         2.73833         1.76521
H           4.47033         2.66608        -2.32820
H           4.05907         2.07877        -3.92433
H           2.07159        -0.71310        -2.50279
H           3.56442        -0.03753        -4.89071
H           2.08871         0.96353        -4.89140
H           0.80230        -0.99270        -4.72565
H           2.59940        -1.28563        -6.71293

