%chk=NCC1d[S][N]CCCCC1dS.chk
%NProcShared=20
# opt freq b3lyp/6-31g(2df,p)

Title Card Required 

0  1
N           0.91088         0.07324        -0.09355
C           2.36828        -0.02859        -0.05121
C           2.90375         0.53475         1.23538
S           4.26975         1.60387         1.12975
N           4.21197         2.75904         2.36273
C           3.03169         3.59543         2.50210
C           1.77502         2.84766         2.93859
C           2.02441         1.95945         4.15981
C           2.90204         0.72903         3.91107
C           2.57325        -0.00157         2.62745
S           1.70879        -1.45186         2.73371
H           0.57892        -0.25771        -0.98359
H           0.66726         1.06602        -0.01448
H           2.77657         0.51819        -0.90882
H           2.69413        -1.07112        -0.15240
H           2.82127         4.20118         1.61309
H           3.23446         4.33200         3.29591
H           1.35389         2.27436         2.10766
H           0.99630         3.58012         3.18427
H           1.05466         1.63276         4.55232
H           2.49087         2.55764         4.95345
H           2.76112         0.05319         4.76599
H           3.97210         0.94806         3.94515

