%chk=NCC[C]c1ncscc2sc1SCdC2.chk
%NProcShared=20
# opt freq b3lyp/6-31g(2df,p)

Title Card Required 

0  1
N           1.23884         0.05415         0.07548
C           2.78432         0.00279         0.01667
C           3.76758         1.34907         0.49073
C           5.61266         1.55222         0.51740
C           7.26456         2.14047         0.85613
N           6.44828         3.22519         1.11573
C           6.31899         4.54629         1.56516
S           7.01271         6.00565         2.18529
C           8.94727         6.29540         2.22239
C           9.91900         5.41396         1.71153
S           8.91348         4.07280         1.76300
C           8.66343         2.70907         0.77143
S          10.57529         1.94921         0.68539
C          11.79507         3.56725         1.28807
C          11.50667         4.91452         1.70620
H           0.82682        -0.85507        -0.20945
H           0.81087         0.69421        -0.60034
H           2.97774        -0.27382        -1.02186
H           2.98688        -0.84671         0.67741
H           3.34922         1.58172         1.49491
H           3.34912         2.15188        -0.14556
H           5.27717         4.75126         1.61250
H           8.81581         7.31573         2.52549
H          10.80789         3.60387         1.21700
H          12.37656         5.56405         1.94943

