%chk=NCCCdNNc1cc2cqc3cc[nH]c13rdCd2.chk
%NProcShared=20
# opt freq b3lyp/6-31g(2df,p)

Title Card Required 

0  1
N           0.91789        -0.02238         0.02174
C           2.37636        -0.02541         0.01225
C           2.91654         0.95860        -1.01546
C           4.42677         0.96365        -1.02898
N           5.04197         1.76060        -1.83691
N           6.40221         1.71275        -1.86047
C           7.13020         2.57243        -2.66944
C           6.69204         3.82428        -2.96128
C           7.30766         4.68066        -3.96866
C           8.69080         4.31898        -4.55859
C           9.15043         3.03463        -4.13454
C          10.28954         2.29460        -4.50896
C          10.20926         1.08654        -3.84287
N           8.97853         1.01855        -3.22594
C           8.37973         2.24729        -3.28844
C           8.40396         5.33474        -3.81607
H           0.57292        -0.70754         0.69332
H           0.55863        -0.30928        -0.88894
H           2.73649        -1.03700        -0.20624
H           2.74026         0.23909         1.01107
H           2.56804         1.97653        -0.80283
H           2.56961         0.69198        -2.02147
H           4.95776         0.27302        -0.35329
H           6.93586         1.08122        -1.27053
H           5.80932         4.21621        -2.46774
H          11.08155         2.59805        -5.18113
H          10.89082         0.24691        -3.80631
H           8.57307         0.18451        -2.82520

