%chk=NdC1NC2dCqCCdCCdCSS1rSC2.chk
%NProcShared=20
# opt freq b3lyp/6-31g(2df,p)

Title Card Required 

0  1
N           2.29568         1.33383        -1.04213
C           3.45531         0.97526        -1.56334
N           3.57493        -0.38844        -1.48892
C           4.79209        -0.87513        -1.40299
C           5.73312        -0.83206        -2.31523
C           5.55049        -0.39606        -3.80111
C           6.87311        -0.38645        -4.43683
C           7.09098         0.17698        -5.62873
C           8.22594         1.09647        -5.60446
C           7.62669         2.26834        -5.24579
S           6.90630         2.50371        -3.39116
S           4.68615         2.40600        -2.36875
S           7.10727        -0.91673        -1.22970
C           5.65479        -1.03392        -0.16663
H           1.82513         0.45587        -0.71060
H           2.85535        -0.88926        -2.00145
H           5.08083         0.59849        -3.87414
H           4.74439        -0.91565        -4.31902
H           7.69676        -0.30178        -3.72194
H           6.22250         0.52225        -6.19892
H           9.08844         0.65164        -5.07825
H           7.24672         2.69352        -6.20192
H           5.53836        -0.23458         0.58029
H           5.57732        -1.98101         0.38009

