%chk=NdC1CdCCdC2CqdOrCCqdNrNCdCC2dNC1.chk
%NProcShared=20
# opt freq b3lyp/6-31g(2df,p)

Title Card Required 

0  1
N           1.61182         0.09302         0.22154
C           2.80719        -0.19929        -0.22409
C           2.85137        -1.00451        -1.45921
C           4.08638        -0.91349        -1.79118
C           5.01324        -1.74523        -2.42259
C           6.26625        -1.58802        -1.99033
C           7.19452        -2.32281        -2.91288
O           7.20919        -2.08247        -4.12367
C           8.09204        -3.36724        -2.30832
C           9.30909        -2.74087        -1.69783
N           9.85210        -3.18386        -0.61259
N           9.76241        -1.61549        -2.30479
C           9.16833        -0.37060        -2.16866
C           8.05326         0.11800        -1.53586
C           6.62541        -0.47772        -0.93756
N           5.88194         0.15409        -0.02445
C           4.24265         0.28543         0.56967
H           0.88644        -0.29642        -0.41722
H           2.10138        -1.68714        -1.83168
H           4.54337         0.01441        -1.49820
H           4.68529        -2.39790        -3.21300
H           8.40300        -4.07572        -3.08957
H           7.52727        -3.92253        -1.56107
H           9.31525        -3.95663        -0.21302
H          10.58620        -1.71488        -2.90527
H           9.76455         0.30618        -2.79373
H           7.92001         1.18605        -1.71065
H           4.10365         1.38736         0.57138
H           4.15992         0.02606         1.64425

