%chk=NdC1CdCC2dNCdCqNrCNdNCdCCdNC23CdC1N3.chk
%NProcShared=20
# opt freq b3lyp/6-31g(2df,p)

Title Card Required 

0  1
N           1.41422         0.29996         0.12685
C           2.88394         0.17464         0.20013
C           3.06751        -1.26234         0.19044
C           4.36849        -1.62270         0.19483
C           5.99950        -1.16608        -0.19544
N           6.37281        -1.42404        -1.39524
C           7.29742        -0.40943        -1.85378
C           8.45973        -0.75326        -2.32959
N           8.65044        -2.12261        -2.33681
C           9.58272         0.51508        -2.38931
N          10.33299        -0.11844        -3.43626
N          11.30275         0.50121        -3.82019
C          12.39159        -0.27794        -3.74485
C          12.53488         0.15836        -2.46301
C          11.03316        -0.33098        -1.09236
N           9.44912        -0.27936        -0.36144
C           7.34636         0.17494         0.18934
C           5.68241         1.08962        -0.67372
C           4.74787         0.93016         0.35952
N           6.15200         1.09611         1.14007
H           0.71984        -0.62479         0.09553
H           2.20950        -1.98916         0.25354
H           4.35409        -2.68848         0.22677
H           7.62345         0.72356        -1.48259
H           7.78899        -2.67448        -2.16336
H           9.44957        -2.43887        -2.82893
H          10.20220         1.12476        -1.33120
H           9.20199         1.50098        -2.52434
H          12.50691        -1.37918        -4.00772
H          13.67006         0.77846        -2.95260
H          12.12383        -1.24464        -1.46366
H           4.94185         2.11688        -0.81310
H           6.74888         1.85816         0.71713

