%chk=Ndc1cc2scccccc1CdCCdC2.chk
%NProcShared=20
# opt freq b3lyp/6-31g(2df,p)

Title Card Required 

0  1
N           2.82974        -0.16097        -0.21472
C           4.43024        -0.63200        -0.77958
C           3.28651        -1.05703        -1.28928
C           4.60851        -0.92222        -1.12762
S           5.13910        -2.00152        -2.42192
C           6.69040        -1.95505        -2.36619
C           7.32500        -2.65249        -3.20256
C           8.62824        -2.72766        -3.29271
C           9.53491        -2.13600        -2.58319
C           8.47185        -0.97873        -1.19538
C           6.85913        -0.32634        -0.41303
C           6.59357         1.01821         1.19936
C           5.30081         1.42088         1.68224
C           4.31150         0.85950         1.00903
C           5.16217         0.29448         0.33146
H           1.50545        -0.43775        -0.54664
H           2.57930        -1.51546        -1.83903
H           7.00189        -1.37349        -1.66878
H           7.10811        -3.28571        -3.96193
H           8.84691        -2.07749        -2.51302
H           9.66451        -3.12487        -3.76904
H           9.89585        -1.28281        -1.56004
H           5.35110         1.75415         2.08191
H           6.52591         1.74116         2.06632
H           3.32319         0.93203         1.09601
H           5.58863        -0.30549        -0.38802

