%chk=NdC1Cdc2ccccccccccncc2dC1.chk
%NProcShared=20
# opt freq b3lyp/6-31g(2df,p)

Title Card Required 

0  1
N           2.48163         0.31761        -0.09300
C           4.51811         0.57463        -0.19711
C           4.53622         1.74954        -0.67300
C           6.54189         2.00390        -0.77603
C           5.28265         2.66195        -1.04257
C           6.59304         2.89713        -1.13783
C           7.40617         3.79700        -1.50233
C           8.63941         4.09060        -1.62125
C           9.33510         4.93170        -1.96193
C          10.44766         4.90887        -1.95269
C          11.17720         5.97189        -2.38326
C          12.31297         6.08927        -2.43081
C          13.58830         7.14723        -2.85933
C          14.70150         6.67218        -2.66691
N          13.30953         5.20043        -2.07078
C          11.45770         3.95597        -1.56671
C           8.99209         2.55503        -0.99927
C           6.96301         1.29167        -0.48755
H           0.83961         0.79633        -0.28691
H           2.84832         2.07984        -0.80679
H           4.67806         3.37026        -1.32947
H           7.80467         2.16907        -0.84294
H           6.83119         4.48366        -1.78045
H           9.87536         3.38655        -1.33607
H           8.98673         5.67527        -2.26312
H          10.87205         3.13291        -1.23334
H          11.11457         6.84785        -2.73807
H          13.05890         4.23676        -1.68045
H          13.31612         7.99443        -3.20249
H          15.86530         5.96649        -2.38107
H          13.05044         5.15612        -2.05283
H           5.61869         0.13590        -0.01940

