%chk=NdC1CdCCqOrdCNdCCdCCdCNdC1.chk
%NProcShared=20
# opt freq b3lyp/6-31g(2df,p)

Title Card Required 

0  1
N           2.52948        -0.10855         0.48406
C           4.34765        -0.19535         0.89788
C           3.08046        -0.34463         1.60812
C           4.39207        -0.37361         1.74602
C           5.08468        -0.62419         2.93910
O           4.34633        -0.83788         3.95649
C           6.45369        -0.69838         3.29227
N           6.56201        -0.95138         4.49668
C           7.49680        -0.78346         3.69519
C           8.66755        -1.09129         5.16277
C          10.18665        -1.00777         4.76532
C          11.00350        -1.25467         5.94093
C          10.23844        -0.90819         4.29259
N           8.54854        -0.63417         2.98910
C           6.73794        -0.37434         1.75160
H           1.00613        -0.18139         0.83094
H           2.42923        -0.50760         2.38401
H           5.47384        -0.29854         1.38834
H           3.42768        -0.81490         3.84706
H           7.74763        -0.45365         2.12642
H           8.77527        -0.42401         1.98316
H           8.68784        -1.30857         6.19744
H          11.54799        -0.79475         3.75105
H          10.84224        -1.53203         7.26137
H          11.80817        -1.05635         4.99678
H           6.06888        -0.05595         0.23383

