%chk=NdCCc1c[nH]ccn2cqc1rNdNSCdC2.chk
%NProcShared=20
# opt freq b3lyp/6-31g(2df,p)

Title Card Required 

0  1
N           1.12933        -0.17537         0.05819
C           2.45466        -0.08277        -0.01878
C           3.76663        -1.02806         0.75877
C           5.83725        -0.89503         0.63832
C           5.60438        -1.87004         1.49922
N           6.64594        -2.49691         1.83303
C           7.80570        -2.78162         2.26542
C           9.08031        -2.04872         1.75040
N           9.97229        -3.13900         2.50028
C           9.47315        -1.98204         1.35152
C           7.86607        -0.94474         0.60094
N          11.27797        -2.05317         1.58263
N          12.64992        -2.86319         2.07149
S          13.20298        -4.58218         3.54147
C          13.36032        -3.25656         2.80534
C          11.59830        -3.75150         3.11357
H           0.60408         0.53506        -0.52771
H           2.86852         0.67994        -0.64723
H           3.12550        -2.05059         0.49673
H           3.12624        -0.96327         1.81498
H           4.91050        -2.52090         2.00026
H           7.26793        -1.82683         1.58019
H           7.46885        -3.57537         2.86016
H           9.72279        -0.79576         0.66848
H           7.09479        -0.05789        -0.05327
H          14.72965        -3.58641         2.90750
H          10.83124        -4.46272         3.58075

