%chk=NdCqNrSNC[SH]dCqCdOrCCdCdO.chk
%NProcShared=20
# opt freq b3lyp/6-31g(2df,p)

Title Card Required 

0  1
N           0.97466         0.03155        -0.07616
C           2.25887        -0.01853        -0.03231
N           2.95167        -0.63017         0.95190
S           3.10452         0.74002        -1.37290
N           4.75635         0.58273        -1.10590
C           5.61244         1.19497        -2.14103
S           7.38426         1.06582        -1.73364
C           8.13014         1.81140        -3.22949
C           7.34443         2.44620        -4.36218
O           6.12918         2.45132        -4.40449
C           9.66646         1.80734        -3.24525
C          10.33416         2.46689        -4.41132
C          11.61364         2.57250        -4.59087
O          12.76157         2.70066        -4.81552
H           0.56204        -0.43468         0.72870
H           2.47921        -0.98958         1.76904
H           3.95416        -0.51298         0.99675
H           5.00964        -0.40218        -1.07508
H           5.37567         2.26291        -2.21411
H           5.42630         0.69225        -3.09864
H           7.61961        -0.21025        -1.95062
H           7.91506         2.90780        -5.16813
H          10.00486         0.76337        -3.18542
H          10.00810         2.29861        -2.32291
H           9.76349         2.92120        -5.20234

