%chk=NdCqOrC1dC2CdCC2qCOrCdCCdCNdNCqOrdCCdC1.chk
%NProcShared=20
# opt freq b3lyp/6-31g(2df,p)

Title Card Required 

0  1
N           0.82631        -0.70515         0.26644
C           1.97341        -1.33027         0.32546
O           2.86150        -0.21452        -0.51095
C           2.63978        -3.04234         1.23556
C           4.00660        -1.95147         1.21096
C           4.95736        -0.65526         0.41456
C           6.12914        -1.04276         0.98934
C           5.34627        -1.88050         1.97418
C           5.45582        -1.44900         3.41679
O           5.43027        -0.06100         3.71765
C           5.59026        -3.27053         1.80945
C           4.77021        -4.00206         2.55531
C           4.78857        -5.37747         2.41483
C           4.13931        -6.16962         3.23286
N           4.15912        -7.48295         2.92244
N           4.06829        -8.19536         3.92157
C           3.20383        -9.15401         3.63872
O           3.70091       -10.21167         2.77480
C           1.99361        -8.35403         3.58920
C           1.74409        -6.49448         2.93432
C           2.06398        -4.78154         2.13992
H           0.77003         0.18434        -0.36782
H           2.50418         0.63108        -1.05161
H           5.14415         0.16051        -0.44291
H           7.24418        -0.83165         0.94402
H           6.37543        -1.89737         3.80193
H           4.59713        -1.87339         3.91329
H           6.22562         0.34695         3.34315
H           6.21689        -3.62015         1.01786
H           3.99507        -3.51605         3.17793
H           5.35021        -5.83207         1.63180
H           3.39536        -5.74016         3.94226
H           4.45762        -9.82350         2.26060
H           1.46812        -9.29602         4.48103
H           1.54221        -7.82233         2.65311
H           1.73580        -4.03976         2.88194

