%chk=NdCqOrC1OCdCNdCCdCqSSrNS1.chk
%NProcShared=20
# opt freq b3lyp/6-31g(2df,p)

Title Card Required 

0  1
N           1.86316        -0.82357        -0.24253
C           3.14871        -0.70787        -0.48229
O           3.52967         0.61028        -0.43781
C           4.39014        -2.08516        -0.30906
O           5.02708        -1.01379         0.36420
C           5.62608        -1.70143         1.29895
C           6.96729        -1.48328         1.34616
N           7.61193        -2.49386         1.94369
C           8.74510        -2.58507         1.31695
C           9.67536        -3.71196         1.27779
C           9.69703        -3.38962        -0.03711
S          11.28575        -2.21166        -0.22136
S          10.47231        -0.31321         0.16894
N           8.33176        -3.64822        -0.92151
S           6.27324        -3.17669        -1.11141
H           1.32146         0.08086        -0.14134
H           2.78376         1.23339        -0.26540
H           3.78792        -2.71386         0.40370
H           5.30000        -2.68536         1.58365
H           7.28390        -0.80865         0.51744
H           8.82571        -1.81921         0.52059
H           9.25076        -4.65493         1.59804
H          11.18071         0.75567        -0.22403
H           8.41857        -4.68753        -0.78708

