%chk=NdNC1CCNCqdNrCdCCdCCdCqOrS1.chk
%NProcShared=20
# opt freq b3lyp/6-31g(2df,p)

Title Card Required 

0  1
N           2.20363        -0.27296        -0.52750
N           3.67911        -0.17852        -1.40669
C           5.53942        -0.82807        -2.11148
C           5.28748        -0.51226        -0.54105
C           5.54279        -1.96241        -1.52672
N           6.83431        -1.90467        -0.93674
C           7.61173        -2.82715        -1.53822
N           7.16127        -3.55050        -2.58532
C           9.12508        -2.48329        -1.22546
C           9.89299        -3.24316        -1.99927
C          11.28495        -3.01686        -1.66556
C          11.96365        -3.69080        -2.60612
C          12.15762        -2.11662        -3.04987
C          10.50892        -1.73945        -3.53882
O          12.18196        -2.59855        -4.35205
S           8.14391        -1.11928        -3.15196
H           1.16011         0.42190         0.14451
H           4.13257        -1.47857        -1.70747
H           4.79064        -0.92129         0.42904
H           4.99530         0.59082        -0.80227
H           4.72449        -1.96687        -2.87156
H           4.98352        -2.84666        -1.19578
H           7.13971        -0.86350        -0.75250
H           6.24542        -3.28605        -3.04728
H           9.47654        -1.34877        -1.13593
H           9.55763        -3.60873        -3.09994
H          11.68878        -1.81471        -1.45576
H          11.77225        -4.29932        -3.63330
H          13.46800        -2.34193        -2.43689
H          13.41011        -3.12632        -3.90321

