%chk=NdS1SCdCCdCCdCC2dCCdCC2dCCdC1N.chk
%NProcShared=20
# opt freq b3lyp/6-31g(2df,p)

Title Card Required 

0  1
N           2.09703        -0.26196        -0.05616
S           4.04240        -0.83917        -0.15319
S           3.15444        -2.40712        -0.18877
C           4.75464        -2.32452        -0.56034
C           5.63848        -3.49617        -0.30241
C           7.28963        -3.34641         0.52828
C           8.04876        -4.46599         0.49936
C           9.60310        -4.32924         0.11915
C          10.28839        -5.51827         0.08988
C          11.62512        -5.42904        -0.24329
C          12.59687        -4.81210         0.40035
C          13.89153        -5.13787        -0.01870
C          13.53025        -5.94138        -1.09031
C          11.54131        -5.66299        -1.57845
C           9.79982        -4.77065        -1.80242
C           7.95939        -3.30387        -1.28843
C           6.58703        -1.87587        -0.51537
N           5.34391        -0.39777         0.66244
H           0.81271        -0.40485        -0.68501
H           5.52566        -0.94334        -0.65677
H           5.19639        -4.36835        -0.28318
H           8.04469        -2.27723        -0.00627
H           7.51903        -5.26569        -0.24725
H          10.11434        -3.39227        -0.23143
H           9.73440        -6.42838        -0.39076
H          12.25671        -4.17284         1.17644
H          14.82381        -4.78079         0.44187
H          14.60522        -6.43370        -1.51969
H          10.82289        -6.08339        -2.24662
H           8.42364        -4.87754        -1.66711
H           4.51477         0.62705         1.51220
H           4.12584         0.63658         0.82714

