%chk=NNC1dCCdCdCC2dCCdNNCCdC21.chk
%NProcShared=20
# opt freq b3lyp/6-31g(2df,p)

Title Card Required 

0  1
N           2.19740         0.04243        -0.16286
N           4.21920         0.55926        -0.39417
C           6.25700         0.40827        -0.59370
C           5.42496        -0.89961        -0.57388
C           5.48013        -2.35161        -0.73613
C           6.74590        -2.47491        -0.80192
C           8.01466        -2.29942        -0.78127
C           8.76259        -1.00274        -0.91698
C          10.04584        -1.36307        -0.89350
C          10.79772        -0.37350        -1.44290
N          12.05112        -0.22818        -1.37859
N          12.20455         0.87861        -2.19160
C          12.53373         1.39824        -0.97024
C          10.29936         1.44485        -0.69026
C           8.47770         0.77843        -0.67872
H           1.16417         0.87001         0.20229
H           1.19232        -0.59824         0.52919
H           3.56536         1.05017         0.34148
H           5.27562        -0.48925         0.42769
H           4.80394        -3.18904        -1.06731
H           8.56256        -3.24321        -0.63492
H          10.69729        -2.17290        -0.83056
H           9.95885         0.37734        -1.99633
H          11.65211         1.86917        -2.23957
H          13.83077         1.08375        -1.81666
H          13.98531         1.19575        -0.49737
H          11.60078         2.25697        -0.68732

