%chk=NNC1dCC23NdCCdCCdNCdCNCdC2C3dC1.chk
%NProcShared=20
# opt freq b3lyp/6-31g(2df,p)

Title Card Required 

0  1
N           1.07938        -0.09169        -0.05609
N           2.51528        -0.11136        -0.14960
C           3.36365        -0.83104        -1.15528
C           4.49542        -1.50549        -0.98068
C           5.52427        -2.33923        -2.16009
N           6.22270        -2.69324        -1.10226
C           7.20522        -3.30647        -1.43434
C           8.21306        -3.95346        -0.87029
C           9.13195        -4.55028        -1.49957
C          10.11257        -5.16651        -0.80412
N          10.90587        -5.66546        -1.56842
C          11.93643        -6.36547        -1.61676
C          11.54319        -6.17443        -3.16270
N           9.94711        -5.19162        -3.81864
C           8.22263        -4.04936        -3.80401
C           6.60686        -3.02306        -3.63924
C           4.96769        -1.94764        -3.32675
C           3.58290        -1.05051        -2.72307
H           0.72776         0.38862         0.79909
H           0.71242        -1.04411         0.01886
H           2.98992         0.29514         0.68978
H           4.69272        -1.64402         0.10276
H           7.49402        -3.47901        -2.34489
H           8.25798        -3.95182         0.10401
H           9.26979        -4.62766        -2.47214
H          10.30255        -5.27197         0.17703
H          12.44635        -6.65314        -0.56727
H          12.72320        -6.93346        -3.45233
H          10.65940        -5.58377        -2.81423
H           7.56890        -3.66111        -4.65686
H           2.38643        -0.27783        -2.80509

