%chk=NNdc1ccnc2cnncccn-2cc1.chk
%NProcShared=20
# opt freq b3lyp/6-31g(2df,p)

Title Card Required 

0  1
N           1.12463        -0.02113        -0.17841
N           2.58549        -0.20337        -0.67718
C           3.55533        -0.61580        -1.79088
C           4.79804        -0.33574        -1.03389
C           5.78902        -0.63080        -1.83123
N           7.03755        -0.79344        -2.26122
C           7.66783        -1.18364        -3.36042
C           8.95524        -1.02215        -2.88414
N           9.73509        -1.32518        -3.71815
N          10.92178        -1.43824        -4.03127
C          10.31508        -1.87192        -5.23662
C          11.57324        -2.02131        -5.52257
C           9.78134        -2.05270        -5.59010
N           7.82091        -1.73958        -4.89347
C           5.88031        -1.64737        -4.56363
C           4.31196        -1.28793        -3.59151
H           0.65410         0.32375         0.75332
H           0.40256        -0.26007        -0.82619
H           4.93569         0.02812        -0.04556
H           5.54168        -0.94788        -2.69257
H           9.27113        -0.69281        -1.99553
H          10.16045        -2.47441        -6.86905
H          12.78512        -1.76105        -4.90026
H          11.22160        -2.31791        -6.36600
H           5.28971        -1.95940        -5.41640
H           2.98751        -1.21731        -3.39450

