%chk=NOC1dCCdCc2ccccsccc2N1.chk
%NProcShared=20
# opt freq b3lyp/6-31g(2df,p)

Title Card Required 

0  1
N           1.21824        -0.34686        -0.07388
O           3.03279        -1.35672        -0.05670
C           4.40555        -3.02016        -0.13504
C           4.51680        -1.38231        -0.08216
C           5.52382        -2.16978        -0.11274
C           6.79026        -2.42747        -0.16649
C           7.45717        -4.07872        -0.07773
C           8.79607        -3.78798        -0.16265
C           9.69932        -4.76893        -0.21968
C          10.90431        -4.42044         0.13616
C          10.17763        -5.37739        -0.74314
S          12.46202        -5.49349        -0.29166
C          12.18811        -7.42835        -0.22800
C          10.46449        -6.52527         0.21162
C           8.25887        -5.58891        -0.13389
N           6.16473        -4.41996        -0.15974
H           0.71029         0.85079        -0.00792
H           0.63344        -0.58851         0.78725
H           4.91785        -0.35261        -0.04714
H           5.75171        -3.09639        -0.14325
H           7.15410        -1.54853        -0.08810
H           9.21880        -2.88399        -0.13025
H           9.16498        -6.39885        -0.22979
H          11.61634        -3.90092        -0.35407
H           9.81234        -7.22117        -0.62128
H          13.37235        -8.53388        -0.33557
H          12.14520        -7.11381        -0.26857
H           4.73069        -4.26030        -0.18502

