%chk=NOCqNrCC1dNNqCdSrCd[SH]1.chk
%NProcShared=20
# opt freq b3lyp/6-31g(2df,p)

Title Card Required 

0  1
N           0.85675        -0.01235        -0.16323
O           2.32013        -0.06287        -0.09308
C           2.80699        -1.00234        -1.06364
N           2.32181        -0.67475        -2.41266
C           4.33757        -1.01356        -1.02179
C           4.86596        -2.04440        -1.96881
N           4.63575        -3.33930        -1.88227
N           5.05394        -3.95359        -3.05830
C           4.88209        -5.32245        -3.29054
S           4.14492        -6.29601        -2.15182
C           5.60157        -3.18258        -3.97951
S           5.78872        -1.60016        -3.35522
H           0.65654         0.70843         0.53872
H           0.58742        -0.88190         0.30555
H           2.43098        -1.99389        -0.77944
H           2.56333         0.30546        -2.57715
H           1.30217        -0.60404        -2.28330
H           4.68159        -1.23985        -0.00494
H           4.72836        -0.01335        -1.24966
H           5.25368        -5.72132        -4.25011
H           5.93547        -3.49485        -4.96228
H           4.75149        -1.07759        -3.98170

