%chk=NSC1dCqNrCqCSrNdNCdCCdCCdC1.chk
%NProcShared=20
# opt freq b3lyp/6-31g(2df,p)

Title Card Required 

0  1
N           1.43480        -0.15969        -0.16838
S           3.46474        -1.04335        -0.75490
C           5.16143        -2.55120        -1.82744
C           5.08143        -1.32660        -1.02334
N           5.87358        -0.49909        -0.43176
C           5.59743        -2.39936        -1.81038
C           4.74689        -2.37310        -3.68097
S           2.87602        -2.47660        -3.58225
N           7.12920        -2.09449        -1.70051
N           7.73462        -2.21132        -2.74229
C           8.53316        -3.05291        -2.45530
C           7.99113        -4.23891        -3.84618
C           9.72789        -3.88162        -3.16752
C          10.55376        -5.06345        -3.80342
C           8.90613        -4.66713        -2.59039
C           6.98347        -3.99250        -2.33855
H           0.86850         0.77557         0.51225
H           0.78647        -0.84021         0.35136
H           5.41170         0.19349         0.08937
H           6.79631        -0.74488        -0.60934
H           5.07872        -3.85024        -1.23038
H           5.13683        -3.29045        -4.14805
H           5.16934        -1.45810        -3.94138
H           2.55019        -3.65425        -2.96014
H           9.56180        -2.65499        -2.01770
H           8.79585        -5.43526        -4.16248
H          11.22643        -3.69130        -2.81601
H          11.07485        -6.08759        -4.54821
H          10.57671        -4.91608        -3.41834
H           5.41432        -3.79669        -2.72302

