%chk=NtCCC1dNNCdCNdNCdNNdCCdNNdC1.chk
%NProcShared=20
# opt freq b3lyp/6-31g(2df,p)

Title Card Required 

0  1
N           0.91452         0.02214         0.04693
C           2.17548         0.02214         0.04693
C           3.69548         0.02214         0.04693
C           5.17860        -1.35237         2.06073
N           5.95885        -0.86082         1.34055
N           6.28515        -1.56793         2.37654
C           7.51526        -1.64288         2.48636
C           8.45220        -2.12828         3.19751
N           9.55823        -2.43492         3.64677
N          10.00509        -3.03834         4.53084
C          11.14699        -3.15719         4.70497
N          11.82566        -3.69456         5.49228
N          12.93096        -4.26408         6.32669
C          12.68941        -5.19817         7.69521
C          12.86858        -4.52460         6.70834
N          10.72822        -4.29878         6.37754
N           8.54034        -3.50669         5.21703
C           6.85242        -2.60041         3.88924
H           4.07421         1.03444         0.14358
H           4.07421        -0.43673        -0.86056
H           5.87075        -2.11680         3.18070
H           8.16816        -1.27704         1.95037
H           8.44444        -2.68386         4.01150
H          11.99516        -2.96490         4.42325
H          12.46938        -5.71372         8.45056
H          14.79390        -4.71359         6.98527
H           5.62028        -2.89889         4.32654

