%chk=NtCC1dCCdC2CdCCdCNdCNCdCCdC12.chk
%NProcShared=20
# opt freq b3lyp/6-31g(2df,p)

Title Card Required 

0  1
N           1.07187         0.06538        -0.02368
C           2.33283         0.06538        -0.02368
C           3.85283         0.06538        -0.02368
C           4.62204         1.16238        -0.02660
C           5.95912         0.90597        -0.01888
C           6.30217        -0.24739        -0.01496
C           7.18251        -1.27620         0.18689
C           8.47260        -0.68907         0.05276
C           9.82949        -1.64044         0.09395
C          10.83955        -1.02019        -0.06994
N          11.88167        -1.31986         0.23469
C          12.89343        -1.76182        -0.02080
N          12.08683        -3.60931         0.31800
C          13.03406        -2.67680        -0.06334
C          10.91277        -2.88918        -0.14993
C           8.37317        -2.36504        -0.19540
C           6.10641        -1.36545        -0.10843
H           4.30367         2.15937        -0.02107
H           6.91302         1.28563        -0.01630
H           7.34468        -3.04976         0.46022
H           8.62627         0.18105        -0.01907
H           9.66868        -3.28703         0.05496
H          10.99721        -0.17225         0.00887
H          13.54751        -0.87811         0.05312
H          13.45239        -4.29838         0.10171
H          14.72748        -2.05834         0.03200
H          12.94355        -3.07580        -0.27776
H           6.71787        -2.68128        -0.40562

