%chk=OC1d[SH]CC2dNCdCCdCC2dNCCdC1.chk
%NProcShared=20
# opt freq b3lyp/6-31g(2df,p)

Title Card Required 

0  1
O           1.57843        -0.43505         0.19357
C           2.83136        -0.36726        -0.29478
S           3.21224         0.94238        -1.41939
C           4.89664         1.13759        -0.78328
C           5.75621         1.47469        -1.97125
N           5.69290         2.75033        -2.12548
C           6.11056         3.52985        -3.13846
C           6.79875         3.23696        -4.22060
C           7.30585         1.96363        -4.63569
C           7.13871         0.75576        -4.09276
C           6.38580         0.33583        -2.87610
N           6.33728        -0.98848        -2.68044
C           5.69091        -1.35525        -1.42473
C           4.74502        -2.14146        -0.56811
C           3.69243        -1.54219         0.09300
H           1.00024         0.21591        -0.25365
H           2.68161         2.05242        -0.95593
H           5.22120         0.29432        -0.22185
H           4.94779         1.88494         0.00844
H           5.78538         4.56349        -2.99964
H           7.02054         4.07283        -4.88406
H           7.89393         2.02372        -5.54954
H           7.61507        -0.08314        -4.59643
H           4.80222        -0.92227        -1.84419
H           6.40533        -0.98836        -0.68165
H           5.21631        -3.00776        -0.11069
H           3.50109        -1.83026         1.13089

