%chk=OC1dCC2dCqCdCCN2rNdC2CdC2C1.chk
%NProcShared=20
# opt freq b3lyp/6-31g(2df,p)

Title Card Required 

0  1
O           1.00141        -0.44820         0.04477
C           2.35984        -0.40191        -0.16406
C           3.14959        -1.30906        -0.79622
C           4.63412        -1.06875        -0.95350
C           5.24652        -0.58488        -2.08187
C           6.69174        -0.36044        -2.09389
C           7.41591        -0.63861        -0.99550
C           6.79748        -1.08611         0.29631
N           5.35641        -1.10567         0.22328
N           4.56201        -0.19643        -3.19775
C           3.64686         0.60069        -2.80971
C           2.26258         0.96904        -2.97645
C           2.94795         1.29738        -1.83815
C           2.90286         0.98272        -0.29862
H           0.55476        -0.62512        -0.79826
H           2.66830        -1.97961        -1.50223
H           7.18390        -0.04068        -3.00943
H           8.50086        -0.58706        -1.01907
H           7.11424        -0.41197         1.09800
H           7.12077        -2.10384         0.51274
H           4.83638        -1.34897         1.05683
H           2.26659         0.88394        -4.07413
H           2.39943         1.71928         0.33674
H           3.86763         0.91215         0.23945

