%chk=OC1dCCdCCdC2CdCCdCdNCdC2N1.chk
%NProcShared=20
# opt freq b3lyp/6-31g(2df,p)

Title Card Required 

0  1
O           2.47683        -0.65190         0.18285
C           4.10913        -1.31782         0.75339
C           3.60118        -0.77568         1.84446
C           4.73978        -0.00954         2.16019
C           5.50768        -0.68424         3.01749
C           7.04205        -0.49955         2.37283
C           7.90624        -1.24742         2.98977
C           9.33915        -1.27681         2.83218
C          10.03405        -1.38316         3.94875
C          11.33145        -1.99614         4.08323
C          11.03002        -2.99501         4.82120
N           9.90916        -3.45204         4.78670
C           8.32436        -3.36839         3.79681
C           7.16591        -2.48509         2.77526
N           5.67690        -2.20869         1.39193
H           1.44153        -0.48385         0.60292
H           2.52381        -0.95872         2.05692
H           5.38596         0.34088         1.22943
H           4.90893        -1.72853         3.19571
H           7.36705        -0.56105         1.27097
H           9.83916        -1.21987         1.91537
H           9.31476        -1.51418         4.79086
H          12.01510        -1.85461         3.26440
H           8.81078        -3.53754         5.12586
H           5.74262        -1.28140         0.52927

