%chk=OC[S]1NdN[CH]CdNNdNNdC2CdCNdC21.chk
%NProcShared=20
# opt freq b3lyp/6-31g(2df,p)

Title Card Required 

0  1
O           2.50214         0.24520        -0.85249
C           4.45661         0.52343        -1.63268
S           6.63150         1.53744        -3.14940
N           5.93953         0.45554        -1.51693
N           6.10109         0.18435        -2.74073
C           7.86159         0.15837        -2.58519
C           7.66615         0.77446        -4.51360
N           8.51907        -0.07683        -4.41283
N           8.46812         0.91236        -6.02111
N           9.46994         1.22803        -6.56431
N          10.22146         1.51992        -7.49009
C          10.73832         1.34902        -6.20380
C          11.91926         1.62273        -7.83658
C          12.56604         1.34947        -6.71802
N          11.09011         1.35537        -5.27548
C           9.41668         1.44911        -4.38729
H           1.58058        -0.03098         0.19210
H           3.78537        -0.55186        -0.59935
H           3.74314         0.81390        -0.26595
H           7.45576        -0.72464        -2.18957
H           6.65680         0.91332        -5.11464
H          12.10698         1.86551        -9.23365
H          13.66183         1.61753        -7.94807

