%chk=OCC1dC2CdCdCqCdN1rCdC1CdC1CdCCdC2.chk
%NProcShared=20
# opt freq b3lyp/6-31g(2df,p)

Title Card Required 

0  1
O           1.38789        -0.48807         0.35351
C           2.91942        -0.68032         0.43484
C           4.09016        -2.09608         1.03546
C           5.39330        -1.78016         1.26003
C           5.09590        -1.13064         2.87735
C           6.18618        -1.18212         3.55951
C           6.91336        -2.18876         3.23147
C           5.44539        -3.40677         2.90539
N           4.20882        -3.29593         2.09233
C           8.13251        -1.48365         2.23528
C           9.38534        -1.66640         2.08490
C          10.66708        -1.39707         1.62721
C          10.51829        -2.55860         2.32601
C           9.92830        -3.64488         2.90984
C           8.89472        -4.46500         2.63420
C           7.48845        -4.22964         1.74832
C           6.66341        -3.14338         0.97768
H           1.12762         0.32241        -0.20127
H           3.19029         0.36672         0.73824
H           3.09644        -0.56925        -0.66462
H           4.27607        -1.72743         3.45826
H           5.57431        -4.21512         3.67376
H           7.83421        -0.72483         1.48910
H          11.30154        -0.70288         1.20387
H          10.67087        -4.00969         3.57826
H           9.10837        -5.33145         3.38348
H           7.02521        -4.94353         2.47570
H           7.13764        -2.34600         0.41895

