%chk=OCC1dCCdCCdCdC2CdCCdCCdC21.chk
%NProcShared=20
# opt freq b3lyp/6-31g(2df,p)

Title Card Required 

0  1
O           2.28467        -0.61977        -0.69250
C           4.16321        -1.10847        -0.80507
C           5.94854        -1.82823        -1.82144
C           5.25952        -0.65501        -1.97851
C           4.97878        -0.59226        -3.32575
C           6.21348        -0.43965        -3.76976
C           6.50246        -1.15973        -4.97706
C           7.73321        -1.31568        -5.22083
C           8.67416        -1.33301        -4.36075
C           9.88813        -0.30454        -4.86325
C          11.19643        -0.18446        -5.23370
C          11.94144        -1.35568        -5.24710
C          11.10823        -2.45946        -4.74611
C           9.34620        -2.73867        -3.77395
C           7.85698        -2.11140        -2.90425
H           1.66352        -0.12142         0.20468
H           3.75402        -1.18348         0.34304
H           3.86828         0.23452        -0.52894
H           5.50577         0.00983        -1.06273
H           4.16973        -1.19779        -3.77248
H           6.99711        -0.31955        -2.85591
H           5.84441        -1.87551        -5.40805
H           9.40408         0.61570        -4.99372
H          11.72032         0.77434        -5.43340
H          13.10446        -1.09492        -5.67998
H          12.18541        -3.15482        -5.24707
H           9.94120        -3.73527        -4.47690

