%chk=OCCqOrC1dNNdC2CdCCdCNdNCdC21.chk
%NProcShared=20
# opt freq b3lyp/6-31g(2df,p)

Title Card Required 

0  1
O           1.14224         0.03623         0.04778
C           2.56095         0.11813        -0.08327
C           3.32809        -0.85103         0.78624
O           2.81118        -2.18656         0.68994
C           4.95857        -0.62445         0.73976
N           5.44821        -0.85670         1.93938
N           6.81765        -1.05610         1.84716
C           7.13813        -0.96303         0.60933
C           8.05994        -1.92593        -0.00158
C           9.28664        -1.87337         0.41649
C          10.21515        -1.97689        -0.71777
C          10.65851        -0.75926        -0.89975
N           9.81125         0.24648        -1.43339
N           8.51915         0.44457        -1.56250
C           7.11086        -0.08808        -1.41952
C           6.22055        -0.30488        -0.32962
H           0.75765         0.67665        -0.57823
H           2.85888         1.13036         0.19211
H           2.80774        -0.11406        -1.11363
H           3.00864        -0.61690         1.83131
H           2.82338        -2.49665        -0.22336
H           7.83906        -2.22093        -1.04009
H           9.50846        -1.19160         1.26490
H           9.71691        -2.30114        -1.64624
H          11.41559        -0.51687        -0.11125
H           6.76849        -0.39707        -2.41406

