%chk=OdC1CdS2CdCC3dCCdC3CdC2S1.chk
%NProcShared=20
# opt freq b3lyp/6-31g(2df,p)

Title Card Required 

0  1
O           1.21537         0.24145         0.15177
C           2.38340         0.11963        -0.17741
C           3.02797        -1.17793        -0.47032
S           4.76884        -1.28339        -0.05184
C           4.97539        -2.81023        -0.86715
C           5.57971        -3.03580        -2.02861
C           6.28322        -2.08507        -2.85021
C           6.95425        -2.04423        -4.00890
C           7.61443        -0.87706        -3.46124
C           6.51969        -0.69996        -2.70788
C           5.66768         0.33205        -2.11033
C           4.83719         0.15166        -1.07969
S           3.60715         1.30126        -0.58002
H           2.47091        -1.87752        -1.11349
H           4.63417        -3.69129        -0.33555
H           5.67978        -4.07097        -2.34680
H           7.10014        -2.74944        -4.82014
H           8.50442        -0.29922        -3.67345
H           5.68441         1.27388        -2.66050

