%chk=Odc1ccc2ncc1dCCqOrdCCd2.chk
%NProcShared=20
# opt freq b3lyp/6-31g(2df,p)

Title Card Required 

0  1
O           1.53964         1.14178         1.05535
C           3.00445         1.60120         1.50423
C           3.47829         0.57435         0.50093
C           4.74380         0.56643         0.49318
C           5.30862         1.42490         1.33198
N           6.51223         1.73259         1.63262
C           6.10716         2.63283         2.51222
C           3.91229         3.15225         3.01974
C           3.25215         4.06746         3.91397
C           2.04750         3.54704         3.40548
O           0.69887         3.59165         3.44906
C           2.39693         2.67257         2.55105
C           4.48634         2.13824         2.02897
H           2.91124         1.22003         1.13180
H           5.17554        -0.08491        -0.14323
H           7.20232         3.05001         2.91984
H           2.65273         4.76448         4.59501
H           0.29464         4.19690         4.04044
H           1.44871         2.28872         2.17600
H           5.19904         3.29697         3.16114

