%chk=OdC1OCdCdCCdNCdCNdCCdCO1.chk
%NProcShared=20
# opt freq b3lyp/6-31g(2df,p)

Title Card Required 

0  1
O           4.86353         0.25089        -3.13132
C           5.86120        -0.59474        -3.32123
O           4.66845        -1.03148        -2.08795
C           4.84789        -1.25642        -0.70310
C           5.49948        -2.23311        -1.20737
C           5.95498        -2.83286        -2.26944
C           7.27660        -2.50520        -2.78392
N           7.50218        -3.25762        -3.79477
C           8.67861        -2.90471        -4.23172
C           9.21268        -3.74979        -5.08175
N          10.49290        -3.68231        -4.73782
C          11.08604        -3.65400        -5.85916
C          10.71791        -1.84312        -6.09414
C           9.16843        -1.01000        -5.51826
O           7.58575        -0.90655        -4.42379
H           5.03446        -0.23996        -0.24738
H           5.36913        -3.59340        -2.76651
H           7.93211        -1.47758        -2.52326
H           9.27554        -1.85725        -3.82220
H           9.00740        -4.64613        -5.62412
H          11.11563        -4.46148        -6.76416
H          12.01378        -2.05157        -6.67004
H           9.90518        -2.12663        -5.93566

