%chk=OdC1CCdCCdCCdCCdCCdNCdCS1.chk
%NProcShared=20
# opt freq b3lyp/6-31g(2df,p)

Title Card Required 

0  1
O           4.67589         0.19969        -0.16652
C           6.54022         0.48359        -0.51745
C           4.28887         0.82978        -0.87678
C           5.63354         0.96801        -1.02906
C           5.67423         1.80039        -1.94740
C           6.94317         1.71392        -1.84864
C           7.90955         2.21904        -2.40742
C           9.60795         2.26565        -2.45372
C          10.33839         2.98861        -3.24681
C          10.70954         2.16251        -2.46139
C          12.07260         2.88061        -3.18494
C          13.50992         1.70468        -1.93073
N          12.74027         2.93589        -3.21523
C          13.79929         2.43235        -2.58341
C          12.06460         1.82100        -1.83142
S           9.32443         0.97226        -0.96348
H           3.05916         1.83251        -0.71818
H           3.05905         0.57422        -1.85908
H           5.69255        -0.23822         0.30201
H           4.96305         2.23265        -2.42363
H           7.64135         1.24393        -1.33455
H           7.42706         2.77230        -3.01915
H          10.58257         1.37426        -1.44634
H           9.60187         3.32324        -3.62796
H          11.49695         0.97289        -1.13318
H          12.17326         3.84683        -4.20454
H          14.75951         1.59959        -1.71983
H          15.49014         2.55599        -2.77868
H          13.69235         2.53528        -2.70970

