%chk=OdC1C2dNCdNCdCCdCCdCc3cccc2c31.chk
%NProcShared=20
# opt freq b3lyp/6-31g(2df,p)

Title Card Required 

0  1
O           7.56594         3.42352         2.22935
C           8.44000         4.39379         2.27527
C           7.95532         5.84069         1.70484
N           6.66582         5.21949         1.14830
C           5.91596         3.74911         0.48052
N           6.54436         2.86582        -0.30574
C           7.56329         3.67669        -0.55157
C           8.81492         3.56069        -0.15002
C           9.49669         4.80597        -0.28171
C          10.79530         4.66996        -0.12417
C          11.54902         5.85426        -0.14401
C          12.50622         5.54270         0.72881
C          11.74907         5.94928         1.85770
C          13.06838         7.10862         1.28661
C          12.83958         8.34837         0.84961
C          11.09069         8.08056         1.40422
C           9.84864         6.82493         1.84667
C          10.08544         5.44549         2.25421
H           4.75361         3.53742         0.49007
H           7.17699         4.74149        -0.63765
H           9.22323         2.68827         0.39051
H           9.03969         5.85419        -0.14210
H          11.23733         3.85198         0.51104
H          10.96933         6.89382        -0.11198
H          13.39995         4.97578         0.92996
H          14.06923         6.91603         0.53098
H          13.94962         9.03222         0.32328
H          12.17986         8.92700         1.98802

