%chk=OdC1CdCSNdCCdNNdCSC1.chk
%NProcShared=20
# opt freq b3lyp/6-31g(2df,p)

Title Card Required 

0  1
O           3.18478         0.47054         0.20476
C           4.10586        -0.27958        -0.06561
C           3.30720        -1.41468        -0.55184
C           4.40783        -1.94634        -0.85564
S           4.91191        -3.28469        -1.58231
N           6.46348        -2.78695        -1.35933
C           7.25529        -3.71084        -1.73864
C           8.58205        -3.58382        -1.29344
N           9.76281        -4.02980        -0.95336
N          10.71431        -2.72608        -0.73459
C          10.13331        -2.03825        -1.76498
S           8.36467        -0.73839        -0.68734
C           6.19780        -0.07677        -0.13657
H           2.33871        -1.84095        -0.82531
H           5.27900        -1.52607        -0.52373
H           7.06773        -4.61016        -2.22945
H           8.41421        -2.72296        -0.79380
H          10.79211        -3.29105        -2.23740
H           5.86323         0.89669        -0.55292
H           5.96337         0.16840         0.96375

