%chk=OdC1CNNCdCCdc2[nH][nH]c2dCNdN1.chk
%NProcShared=20
# opt freq b3lyp/6-31g(2df,p)

Title Card Required 

0  1
O           2.38578        -0.57944        -0.06748
C           3.32723        -1.66936        -0.29344
C           3.15816        -1.41621        -1.57327
N           4.59586        -0.56150        -0.82671
N           5.62768        -1.30363        -1.19293
C           6.91174        -1.21948        -0.89359
C           7.58568        -2.11305        -1.51170
C           8.89200        -2.38510        -1.71207
C           9.22857        -3.39119        -2.45469
N          10.41419        -3.70573        -2.69203
N           9.98319        -4.69749        -3.42701
C           8.47437        -4.58538        -3.28207
C           6.70475        -4.31556        -3.06966
N           5.23859        -3.64149        -2.34154
N           4.06165        -2.83942        -1.41863
H           2.46432        -0.74282        -2.07767
H           2.37290        -2.24841        -0.78383
H           4.73139        -0.75758         0.28467
H           5.32765        -2.17279        -1.65950
H           7.40888        -0.48728        -0.35173
H           6.81836        -2.63441        -1.94757
H           9.61012        -1.75773        -1.26737
H          11.30356        -3.26477        -2.37285
H          10.89266        -5.16644        -3.77184
H           7.36175        -3.67170        -2.67766

