%chk=Odc1ccccncccccc2ccc1-2.chk
%NProcShared=20
# opt freq b3lyp/6-31g(2df,p)

Title Card Required 

0  1
O           5.99934         1.73586         2.39290
C           7.04160         3.00964         3.59301
C           5.07348         2.02015         2.33546
C           5.20972         1.19944         1.24430
C           5.36477         2.72332         2.93010
C           7.25140         2.04393         2.18275
N           8.38585         2.81295         3.19792
C           8.68731         2.12736         2.40226
C           9.06695         2.87689         3.44718
C          10.60330         3.00048         3.53431
C          11.09105         3.92243         4.32641
C          12.69613         3.82894         4.44573
C          11.56956         4.33372         5.00864
C          13.31732         4.73891         5.56565
C          11.29941         4.43354         5.75626
C           9.34412         3.93261         4.63819
H           3.33065         1.62930         1.85769
H           4.81412         0.37395         0.33890
H           4.25296         2.74372         3.18108
H           7.05760         1.09071         1.20381
H           9.31367         1.75974         2.03808
H           8.07087         3.82966         4.55431
H          11.30838         2.63433         3.05511
H          10.26881         5.06836         5.68401
H          13.48220         3.46217         4.05576
H          15.03434         4.53159         5.33677
H          12.91761         5.10782         6.08987

