%chk=Odc1ccn2cqc1rCdCCdCdCdC2.chk
%NProcShared=20
# opt freq b3lyp/6-31g(2df,p)

Title Card Required 

0  1
O           1.00573         0.23605         0.11269
C           2.21412         0.03529         0.15348
C           3.23978         1.10087         0.05887
C           4.55661         0.69937         0.10981
N           4.95733        -0.74039        -0.01033
C           3.86457        -1.50225        -0.43008
C           2.71499        -1.33465         0.22142
C           4.17817        -2.63266        -1.29941
C           3.85782        -3.89722        -0.92963
C           5.03883        -4.76260        -0.62103
C           5.66740        -4.16373         0.40832
C           5.98593        -3.06568         0.65961
C           6.13919        -1.69311         0.45271
H           2.77535         2.09514         0.01130
H           5.27449         1.53356         0.11453
H           1.99778        -2.10623         0.34936
H           5.15739        -2.48403        -1.77812
H           3.06575        -3.96667        -0.17313
H           5.78870        -5.01721        -1.38491
H           6.86967        -1.53258        -0.34717

