%chk=OdC1CCdCCdCCdC2CdCSCdNN2NS1.chk
%NProcShared=20
# opt freq b3lyp/6-31g(2df,p)

Title Card Required 

0  1
O           3.70531         1.50949        -0.67415
C           4.19974         1.73841         0.45804
C           3.44670         1.07628         1.64827
C           4.55309         0.11934         1.60262
C           5.59710         0.45073         2.35434
C           6.87679         0.18224         1.75437
C           7.94332         0.66284         2.43638
C           9.18218         1.02400         1.80622
C           9.74897         2.14561         2.27870
C          11.25886         2.13647         2.37237
C          12.06085         1.53652         3.27524
S          11.58677         1.16631         4.85768
C          10.13277         2.11634         5.19659
N           9.10167         2.73573         4.59022
N           8.85332         2.92647         3.03087
N           7.10253         3.23619         2.39888
S           6.09343         2.79227         0.66478
H           2.58581         0.38048         1.62998
H           2.88797         2.01707         1.68259
H           4.72831        -0.53657         0.73505
H           5.41660         1.34350         2.98170
H           7.01077         0.07313         0.68567
H           7.65033         1.10395         3.39509
H           9.68446         0.43032         1.06869
H          11.80624         2.49500         1.51178
H          13.11238         1.29263         3.04172
H          10.18123         2.10825         6.31978
H           7.44366         4.06798         1.89118

