%chk=OdC1C2dCdCCdCCdCN1NdCCdCCdN2.chk
%NProcShared=20
# opt freq b3lyp/6-31g(2df,p)

Title Card Required 

0  1
O           1.48944         1.01663        -0.19534
C           2.47956         1.66215         0.19442
C           3.08943         0.93426         1.30550
C           4.37738         0.77509         1.18735
C           5.66351         0.63585         0.96560
C           6.32449         1.03519        -0.27309
C           7.25167         1.95737        -0.02540
C           6.19201         3.28221        -0.25550
C           4.67276         3.56598         0.39389
N           3.00844         3.15172         0.70564
N           1.59082         4.03552         1.72581
C           0.18734         3.91753         2.30488
C          -0.71096         2.67053         2.66842
C           0.33767         2.21343         3.35879
C           1.10148         1.44513         2.34519
N           2.39630         1.26536         2.48102
H           6.30524         0.46528         1.81846
H           5.67018         1.45506        -1.05501
H           8.14194         1.62184         0.62041
H           6.88133         3.37230        -1.21673
H           5.47241         3.16249         1.17122
H          -0.45831         4.61870         3.31772
H          -1.52738         2.22499         2.07764
H           0.99343         2.97298         3.85426
H           0.43744         1.29063         1.43709

