%chk=OdC1CdCCdCCdCCdC1CqdSrS.chk
%NProcShared=20
# opt freq b3lyp/6-31g(2df,p)

Title Card Required 

0  1
O           1.67580        -0.15883         0.09347
C           3.16707        -0.12264         0.05834
C           3.10948        -1.09225         1.00784
C           4.36632        -1.34707         1.25589
C           4.52843        -2.26760         2.14992
C           5.35688        -1.63711         1.55247
C           6.50572        -2.65056         2.53494
C           8.14834        -2.34794         2.29356
C           6.84681        -1.49763         1.30601
C           5.35467        -0.17190         0.15997
C           3.74501         0.85193        -0.89437
S           1.69222         1.49125        -1.52355
S           3.37624         2.44650        -2.45923
H           2.35356        -1.59893         1.50440
H           5.90147        -0.91657         0.81865
H           4.45512        -2.91305         2.79444
H           6.80389        -0.59238         0.51315
H           6.60317        -3.43923         3.30744
H           9.21067        -2.06622         1.96295
H           7.86852        -2.37615         2.27035
H           4.53199         2.84716        -2.85197

