%chk=Odc1nc2cncnnccccccc1-2.chk
%NProcShared=20
# opt freq b3lyp/6-31g(2df,p)

Title Card Required 

0  1
O           2.37498         0.88582         0.03870
C           3.94694         1.37131         0.03762
N           3.80176        -0.28016         0.03774
C           4.92578         0.62803         0.04624
C           5.99320        -0.12431         0.05088
N           6.74213         0.81413         0.05544
C           7.98666         0.89180         0.06339
N           8.74727         1.83239         0.06575
N           9.97947         1.54625         0.07928
C          10.61388         2.57626         0.07387
C          12.00507         2.68383         0.10365
C          11.21738         3.75451        -0.14473
C          12.15971         4.48609         0.13937
C          10.13799         4.44238         0.13890
C           7.92984         3.52954         0.07550
C           5.95371         2.52889         0.07412
H           6.24902        -1.07432         0.05225
H           8.46305         0.03274         0.06618
H           9.39717         3.32094         0.04838
H          12.91540         2.15879         0.12271
H          11.34384         5.54177         0.02207
H          13.74507         3.94104         0.11002
H          12.02643         4.75425         0.22029
H           6.41624         3.60667         0.05162

