%chk=OdC1CS[SH]dCCC2CONCdC2CS1.chk
%NProcShared=20
# opt freq b3lyp/6-31g(2df,p)

Title Card Required 

0  1
O           1.15089        -0.15740        -0.02476
C           2.32071        -0.02259         0.20811
C           3.03463         1.34246         0.11933
S           3.70237         1.67481        -1.52227
S           5.40842         0.63607        -1.42154
C           4.80675        -0.82333        -2.23910
C           5.62042        -2.00645        -1.94777
C           4.84401        -3.30986        -1.98370
C           5.98306        -4.28847        -2.35663
O           6.28715        -5.62399        -1.93956
N           5.64070        -5.82919        -0.72194
C           4.59621        -4.96638        -0.22278
C           4.14471        -3.75678        -0.71115
C           2.95583        -2.74224        -0.40419
S           3.33609        -1.40999         0.80788
H           3.81736         1.43550         0.87491
H           2.31866         2.14976         0.29582
H           5.35563         0.13822        -0.19555
H           3.95509        -0.87381        -2.93284
H           6.13227        -1.90345        -0.98397
H           6.38484        -2.01822        -2.73631
H           4.09300        -3.26436        -2.79956
H           5.14233        -4.80441        -2.80718
H           6.53756        -3.93352        -1.46839
H           6.37865        -6.09379        -0.06195
H           4.16937        -5.50380         0.61675
H           1.97680        -3.19914        -0.22042
H           2.77692        -2.18168        -1.33274

