%chk=OdC1CdCNdCC2dCCdCC2dNCdC1.chk
%NProcShared=20
# opt freq b3lyp/6-31g(2df,p)

Title Card Required 

0  1
O           2.76349        -0.51798        -0.74255
C           3.57626         0.42687        -0.85160
C           3.19964         1.66875        -0.20526
C           4.26128         1.93460         0.49305
N           4.89249         3.10474         0.28420
C           6.14231         2.86735         0.29343
C           6.94704         3.79867        -0.31512
C           6.95929         5.09837         0.00481
C           7.96180         5.71311        -0.77049
C           8.47677         4.80827        -1.65249
C           7.61133         3.39989        -1.51922
N           7.31919         2.22805        -2.12020
C           6.46202         0.92833        -1.73990
C           5.21729         0.30900        -1.35894
H           2.45081         2.34705        -0.60782
H           4.92011         1.10391         0.80564
H           6.69952         1.91552         0.48236
H           6.30909         5.50560         0.75750
H           8.22717         6.74605        -0.51761
H           9.35890         5.11275        -2.21094
H           7.19040         0.10585        -1.88504
H           5.24529        -0.80167        -1.16313

