%chk=OdC1CdCC2dNCdC2CdNCdCCCCN1.chk
%NProcShared=20
# opt freq b3lyp/6-31g(2df,p)

Title Card Required 

0  1
O           0.26533        -0.50808         0.49594
C           0.78644        -1.45768         1.18346
C           2.56865        -1.07191         0.92397
C           3.97118        -0.99844         0.85862
C           5.00340        -1.90303         1.49771
N           6.27997        -1.99003         1.53614
C           6.20161        -3.15616         2.36953
C           4.85708        -3.06618         2.32916
C           3.56179        -3.60436         2.69902
N           2.98907        -4.54345         3.37090
C           1.61321        -4.46897         3.27011
C           0.82926        -5.32437         3.86367
C          -0.51494        -4.92207         3.57472
C          -1.85580        -5.05774         3.77739
C          -1.71425        -3.51844         2.69606
N          -0.37079        -2.30232         1.84046
H           2.62917        -1.91460         1.45560
H           4.60800        -0.25950         0.32469
H           7.08598        -3.69060         2.71711
H           2.76501        -3.06849         2.27440
H           1.09366        -3.66670         2.68398
H           1.00974        -6.14977         4.48806
H          -0.64884        -5.23621         2.51839
H          -0.56636        -4.03143         4.24194
H          -1.88848        -5.15880         4.91912
H          -1.95364        -6.16617         3.49516
H          -2.29809        -2.82910         3.31975
H          -2.34643        -3.82671         1.87358
H          -1.04831        -1.71557         1.39701

