%chk=OdC1SCdCCdCdCOCdNSC1dO.chk
%NProcShared=20
# opt freq b3lyp/6-31g(2df,p)

Title Card Required 

0  1
O           2.28416         0.39249        -0.82506
C           3.07735         1.27863        -1.16965
S           3.47177         2.43787         0.04742
C           5.07764         1.73462         0.39235
C           6.07481         2.42992        -0.17133
C           7.38478         1.88306        -0.49058
C           8.40715         2.60504        -0.83656
C           9.32096         3.39517        -1.29558
O           8.70873         3.94599        -2.37259
C           8.21788         4.92653        -3.17060
N           6.97890         4.45426        -3.27181
S           5.85774         2.70421        -3.16264
C           4.60829         1.27194        -2.07000
O           5.10359         0.13897        -1.88525
H           5.28138         0.65547         0.52527
H           5.68725         3.29797        -0.71708
H           7.59479         0.83356        -0.35915
H          10.25884         3.76341        -0.91634
H           9.47893         5.33465        -3.03365

