%chk=OdC1CdCCdCCdNNNCqCOrdCCC1.chk
%NProcShared=20
# opt freq b3lyp/6-31g(2df,p)

Title Card Required 

0  1
O           3.28782        -0.14917        -0.37586
C           4.84632        -0.33867        -0.83143
C           3.14768        -0.21976        -1.57023
C           4.41887        -0.31444        -1.91213
C           5.11588        -0.37486        -3.04883
C           6.45749        -0.05393        -3.31416
C           6.95427        -0.78815        -4.28657
N           7.94618        -0.06025        -4.12785
N           8.71566        -0.29860        -5.09712
N          10.40491         0.23936        -4.44531
C          10.27125        -0.40252        -6.05374
C          10.58883        -1.22199        -7.52165
O           9.14010        -1.36291        -7.54428
C          10.73810        -1.03935        -4.85266
C           9.05073        -1.13835        -3.15451
C           7.09142        -0.91919        -1.82959
H           2.38726        -0.35008        -2.34658
H           5.57705        -0.38664        -2.00107
H           4.40854        -0.62130        -3.68983
H           7.79900         0.16493        -2.48325
H           6.51332        -0.91381        -5.15153
H           8.53279        -1.00907        -5.97665
H          11.44812        -0.54474        -3.74457
H          10.86602        -2.26551        -7.98499
H          10.86513        -0.53772        -8.34767
H           9.00505        -2.06892        -6.87590
H          12.33974        -0.98043        -5.30875
H          10.08440        -1.77324        -4.41659
H          10.16435        -1.35641        -4.50613
H           6.37427         0.33700        -0.96942
H           6.28234        -0.66967        -0.49005

