%chk=OdCCdCC1dCCdCC2dCCdCSC2dN1.chk
%NProcShared=20
# opt freq b3lyp/6-31g(2df,p)

Title Card Required 

0  1
O           1.16010        -0.02365         0.01403
C           2.38766        -0.02638         0.05555
C           3.20287        -1.07548        -0.63310
C           4.56724        -1.17485        -0.62125
C           5.37532        -2.17207        -1.45607
C           4.76522        -2.25006        -2.67545
C           4.98398        -2.96655        -3.87228
C           5.96279        -3.78126        -4.01958
C           6.89768        -4.07626        -2.99113
C           7.71608        -4.82880        -3.53252
C           8.51521        -5.70741        -4.12694
C           9.42377        -5.96896        -3.21565
S           9.14076        -4.98297        -1.26285
C           7.32162        -3.71922        -1.64538
N           6.64183        -2.82370        -0.89615
H           2.94074         0.74645         0.60737
H           2.55631        -1.75695        -1.19098
H           5.12513        -0.38815        -0.12349
H           3.87209        -1.66757        -2.91657
H           4.37330        -2.91844        -4.75932
H           6.15296        -4.29433        -4.94129
H           8.52534        -4.35117        -2.97138
H           8.20988        -5.87918        -5.20121
H          10.24993        -6.62072        -3.55988

