%chk=OdCC1dNCdCc2ccccc2CdC1.chk
%NProcShared=20
# opt freq b3lyp/6-31g(2df,p)

Title Card Required 

0  1
O           1.71238         0.91250         0.23258
C           2.91766         0.74609        -0.06425
C           4.18885         1.44336         0.63535
N           4.68858         0.53955         1.44748
C           5.40182         1.14722         2.38122
C           6.73221         1.36813         2.23747
C           7.10998         2.62142         2.84634
C           6.78499         3.02825         4.14697
C           7.22544         4.22743         4.69221
C           8.14254         4.94138         3.96059
C           8.21035         4.66030         2.56329
C           7.37118         3.63369         1.96799
C           6.10343         3.64141         0.79101
C           4.77833         3.07661         0.66373
H           3.16564        -0.19257        -0.59918
H           4.83436         1.83095         3.01299
H           7.25699         0.98488         1.36975
H           6.08100         2.43106         4.71256
H           6.92655         4.51549         5.69420
H           8.81711         5.61887         4.49875
H           9.28529         4.75701         2.26779
H           6.74265         3.32528        -0.03845
H           4.01743         3.50910         1.33229

