%chk=OdCCdNNc1cc2ccccccc1-2.chk
%NProcShared=20
# opt freq b3lyp/6-31g(2df,p)

Title Card Required 

0  1
O           1.05199        -0.09811        -0.10452
C           2.29127        -0.09505        -0.10028
C           3.41390        -0.91019        -1.23089
N           5.01315        -0.94266        -1.27592
N           6.56298        -1.61980        -2.21511
C           8.40924        -1.82671        -2.50209
C           7.68905        -2.53159        -3.47976
C           8.93591        -2.69251        -3.70295
C           9.33441        -3.37698        -4.65232
C          10.54509        -3.36705        -4.63855
C          11.17061        -4.05375        -5.59099
C          12.21645        -3.55093        -4.89361
C          13.20156        -4.01140        -5.53226
C          12.24109        -3.10498        -4.27506
C          10.16417        -2.29833        -3.15624
H           2.79960         0.46768         0.68022
H           2.58579        -1.40195        -1.91295
H           5.45634        -2.02804        -2.78134
H           6.68212        -2.85257        -3.92497
H           8.62568        -3.74397        -5.16133
H          11.43804        -2.50302        -3.44014
H          10.78898        -4.60065        -6.34954
H          13.56155        -2.89843        -3.98857
H          13.11267        -4.81786        -6.65082
H          13.74041        -3.57407        -4.92568

