%chk=OdCCC1CdNC2dCCdCCdC3CdC3CdCCdC21.chk
%NProcShared=20
# opt freq b3lyp/6-31g(2df,p)

Title Card Required 

0  1
O           1.09307         0.03463        -0.02058
C           2.31069         0.10031        -0.13326
C           3.26264         0.13459         1.00730
C           4.78397         0.32306         0.39575
C           5.22362        -1.02676        -0.05922
N           6.25825        -0.92989        -0.82101
C           6.60310         0.41107        -0.73284
C           7.77642         1.07224        -0.63368
C           7.64630         2.68484        -0.26848
C           8.32948         3.62857        -0.90666
C           8.04252         5.00321        -1.31077
C           8.90293         5.48500        -2.16131
C           9.61640         6.29852        -2.87816
C           9.63168         4.97277        -3.28867
C           8.99074         3.41407        -3.38486
C           7.84877         2.42470        -3.14603
C           6.23090         2.10491        -2.22909
C           5.50030         1.35568        -0.99908
H           2.79938         0.07922        -1.11214
H           3.09150        -0.81820         1.57880
H           2.94702         0.90501         1.73447
H           5.33080         0.42005         1.38909
H           4.72165        -1.96120         0.30233
H           8.31813         0.66770        -1.52743
H           6.70186         3.14805         0.02842
H           9.16839         3.13129        -1.34796
H           7.34569         5.72042        -0.92640
H           9.80735         7.36169        -2.71695
H           9.98826         2.90668        -3.08973
H           8.42558         1.49598        -3.38249
H           5.74482         3.08341        -2.05958

