%chk=OdCCdCc1cc2ccccccc1-2.chk
%NProcShared=20
# opt freq b3lyp/6-31g(2df,p)

Title Card Required 

0  1
O           1.21979        -0.03460        -0.01651
C           2.48453        -0.09645        -0.07278
C           3.63933        -1.26643        -1.13706
C           5.18140        -1.81745        -1.63830
C           6.56586        -3.03240        -2.74350
C           7.19698        -2.09841        -1.89388
C           8.13430        -2.74691        -2.48379
C           9.35010        -2.52982        -2.28632
C           9.90652        -3.33687        -3.02046
C          11.24090        -3.30152        -2.98985
C          11.00306        -4.30143        -3.89511
C          12.18875        -4.63665        -4.20283
C          10.37388        -4.58967        -4.16009
C           8.16150        -3.80314        -3.44461
H           2.93200         0.67669         0.63052
H           2.65002        -1.64775        -1.48393
H           5.29934        -0.77603        -0.69097
H           7.19636        -1.23728        -1.11055
H           9.52244        -1.83227        -1.65179
H           9.09672        -4.46813        -4.04953
H          11.86782        -2.70413        -2.44490
H          10.68340        -5.57459        -5.05726
H          13.29396        -4.07892        -3.69547
H          11.79327        -5.27864        -4.78682

