%chk=OdCc1cc2ccccqdOrccc-2c1.chk
%NProcShared=20
# opt freq b3lyp/6-31g(2df,p)

Title Card Required 

0  1
O           0.98573        -0.08645         0.01611
C           2.21832        -0.14721         0.04689
C           2.96383        -1.45167        -0.04876
C           2.53067        -2.38922        -0.86687
C           3.26586        -3.55621        -0.56281
C           2.81786        -4.80392        -0.67335
C           2.13536        -5.07946        -1.85438
C           2.52521        -6.39487        -1.99960
C           2.76763        -6.36757        -3.35571
O           1.54561        -6.23217        -3.85133
C           4.30747        -5.85575        -2.57855
C           5.01524        -4.90048        -1.21142
C           4.64171        -3.47265        -0.14839
C           4.16177        -2.14561         0.54054
H           2.79940         0.79184         0.06129
H           1.72346        -2.41902        -1.54150
H           3.48006        -5.79142        -0.34417
H           1.65317        -4.32610        -2.56562
H           3.42832        -7.25154        -1.51854
H           4.03811        -7.10893        -3.03657
H           5.40341        -5.08543        -0.01320
H           4.49887        -1.41624         1.37110

