%chk=OdCqOrCC1dCC2dCCdCCdC1NdCqCOrCCC2.chk
%NProcShared=20
# opt freq b3lyp/6-31g(2df,p)

Title Card Required 

0  1
O           1.05421        -0.18432        -0.23097
C           2.30051        -0.31984        -0.08778
O           2.89200         0.32696         0.91947
C           3.16717        -1.10787        -1.10220
C           4.63493        -1.65514        -0.73155
C           5.15710        -1.78449         0.52198
C           6.63425        -1.48291         0.90770
C           7.01742        -0.20717         1.06592
C           6.14760         0.85470         0.67680
C           5.58742         0.88850        -0.56964
C           5.76583        -0.15286        -1.85898
C           5.55654        -1.56218        -1.83651
N           5.58786        -2.98265        -2.59271
C           6.39466        -4.10548        -2.32320
C           6.44549        -5.78786        -2.79150
O           5.66617        -6.89628        -3.13422
C           7.72821        -4.10751        -1.41150
C           7.23289        -3.28048        -0.35460
C           7.87217        -2.29628         0.48449
H           3.85773         0.20999         0.94444
H           3.22131        -0.38040        -1.94495
H           2.52826        -1.92279        -1.46727
H           4.47080        -1.80383         1.34628
H           8.07484         0.03895         1.18467
H           6.01173         1.58908         1.49634
H           4.93837         1.75294        -0.74208
H           6.15012         0.48562        -2.64041
H           6.86580        -6.23384        -1.85859
H           7.35465        -5.82772        -3.42056
H           5.83841        -7.60925        -2.47147
H           8.62434        -3.80717        -1.96203
H           7.92704        -5.06040        -0.90632
H           6.32561        -3.73532         0.05269
H           7.05698        -2.52790        -1.07188
H           8.52263        -1.67871        -0.17978
H           8.48861        -2.70593         1.27286

