%chk=OdCqOrC1dCSCd[SH]CdCCSCS1.chk
%NProcShared=20
# opt freq b3lyp/6-31g(2df,p)

Title Card Required 

0  1
O           2.27921         0.57595         0.83735
C           3.72907         0.59380         1.10626
O           3.33973        -0.45813        -0.28985
C           5.61075         1.05836         2.28318
C           4.95932         0.68152         0.95433
S           5.98268         1.88378         1.34087
C           7.58554         1.93703         0.99624
S           8.47559         3.43598         2.45853
C           9.69810         2.40815         1.76684
C          10.17166         3.32813         2.76335
C          11.47648         2.24077         1.88241
S          12.43268         3.24396         3.65336
C          10.71419         1.61526         3.44374
S           7.96657         1.12206         3.11213
H           3.99194        -0.91472        -0.82932
H           5.16981         0.06393         0.11298
H           7.78549         0.76405         0.85620
H           8.17996         2.61074         3.90258
H           9.98604         1.23966         1.41181
H          10.62660         3.65206         3.84919
H          12.28572         2.63114         1.34112
H          12.23805         1.09215         2.47055
H          12.24738         1.96671         3.61089
H          12.11078         2.52026         3.13328

