%chk=ONdC[N]c1ccccccccc2cc-2cc1.chk
%NProcShared=20
# opt freq b3lyp/6-31g(2df,p)

Title Card Required 

0  2
O           1.02531        -0.00522         0.08047
N           2.54290        -0.05869         0.06105
C           3.54720         1.22347         0.52667
N           5.33416         1.96885         0.79736
C           7.04257         3.09309         1.20563
C           6.94289         1.88339         0.76633
C           7.89087         2.75538         1.08299
C           9.89037         2.83007         1.11012
C           9.81644         4.84340         1.84127
C          10.65487         5.25398         1.99037
C          11.35283         6.09375         2.29534
C          12.50427         6.28138         2.36348
C          13.64018         6.90100         2.58850
C          14.63062         6.05563         2.28150
C          15.21459         6.92713         2.59799
C          13.70743         5.22300         1.97912
C          11.66966         4.26343         1.63065
C           8.98285         3.83915         1.47657
H           0.59414        -0.85546        -0.22830
H           2.56556         1.86092         0.75817
H           7.32552         1.08840         0.47762
H           7.68715         4.51592         1.72234
H           9.44114         2.01107         0.81269
H           8.98550         5.52419         2.08850
H          10.89457         3.47881         1.34571
H          11.05276         6.85398         2.57142
H          12.68927         4.76699         1.81352
H          13.36985         7.81001         2.91861
H          15.96161         8.39255         3.13016
H          13.22985         3.68635         1.42108
H           7.09613         3.75960         1.44768

