%chk=ONdCCC1dCCdC2CdCCdCCdCCdC21.chk
%NProcShared=20
# opt freq b3lyp/6-31g(2df,p)

Title Card Required 

0  1
O           1.07310        -0.09567        -0.01417
N           2.48945         0.01835        -0.10744
C           3.05541        -1.07763         0.34173
C           4.57583        -1.38239         0.30247
C           5.18489        -3.03147         0.70637
C           5.94510        -2.80549         1.81443
C           6.07038        -4.07855         2.38166
C           5.21051        -4.89135         1.78935
C           4.47666        -5.93417         2.28754
C           5.32004        -6.77023         2.84288
C           4.50287        -7.91941         2.72121
C           5.20363        -8.98132         3.04032
C           5.00494        -9.49886         1.64857
C           5.53945        -8.47148         0.61908
C           5.27471        -6.51846         0.16956
C           5.14795        -4.90652         0.35540
H           0.72078         0.73141        -0.40993
H           2.45957        -1.87008         0.79600
H           4.96935        -0.50897         0.96801
H           4.97088        -1.04225        -0.65916
H           6.27416        -1.89762         2.37100
H           6.59459        -4.33117         3.26756
H           3.65733        -6.36969         1.59526
H           6.36880        -6.52510         3.13098
H           3.80463        -8.08190         1.67976
H           6.21437        -8.80887         3.50823
H           4.78332       -10.66520         1.72286
H           6.35147        -9.21502         1.30523
H           4.21953        -6.34166        -0.28378

