%chk=ONdC1CdCc2[nH]c3cccccccc-3cc21.chk
%NProcShared=20
# opt freq b3lyp/6-31g(2df,p)

Title Card Required 

0  1
O           1.06115        -0.12489         0.02416
N           2.47259        -0.05966        -0.02837
C           2.99830        -1.10962         0.54603
C           4.52761        -1.30744         0.62367
C           4.73315        -2.43548         1.31241
C           3.48789        -2.99824         1.65875
N           3.24599        -4.09501         2.34396
C           2.02881        -4.59430         2.59104
C           1.53120        -5.21080         3.64359
C           2.71582        -6.12724         3.75023
C           2.28137        -6.98101         4.62528
C           3.07012        -8.14231         4.87063
C           2.18454        -9.32754         5.50563
C           1.10144        -8.52802         4.27721
C           0.67459        -6.90073         3.23407
C           0.70081        -4.98256         2.51161
C           0.93187        -3.30298         1.85328
C           2.38560        -2.37976         1.28430
H           0.69893         0.68672        -0.39530
H           5.29840        -0.66612         0.22004
H           5.68446        -2.87829         1.57541
H           3.91765        -4.71903         2.71758
H           0.04113        -5.60257         4.04534
H           3.77118        -6.25438         3.61803
H           0.78500        -7.10374         4.99216
H           4.08090        -8.36799         4.92227
H           1.27581       -10.03434         5.97161
H           2.19794        -9.26004         5.26161
H          -0.06687        -5.77474         2.67354
H           0.38562        -2.20781         1.23773

