%chk=OOC1dCCdCCdCCdCCdCCdCCdCCdC1.chk
%NProcShared=20
# opt freq b3lyp/6-31g(2df,p)

Title Card Required 

0  1
O           2.06516        -0.25611        -0.64608
O           4.17805        -0.99639        -1.97797
C           6.17347        -1.81724        -3.45481
C           5.13927        -0.89666        -1.79853
C           5.38898        -1.40845        -2.71932
C           6.82876        -1.06623        -2.10361
C           7.69249        -1.65786        -3.16807
C           8.79755        -1.74999        -3.33381
C           9.81786        -2.29157        -4.30820
C          10.87132        -2.30470        -4.33183
C          11.48770        -2.71669        -5.07307
C          12.69142        -2.77842        -5.18414
C          12.92527        -3.25030        -6.03312
C          14.58984        -3.57155        -6.61111
C          15.30492        -4.23810        -7.81035
C          13.47762        -3.83540        -7.08581
C          10.82992        -3.27324        -6.07440
C           8.55840        -2.66892        -4.98713
H           0.90966         0.38553         0.50834
H           4.93012        -0.12816        -0.41587
H           4.43242        -1.73659        -3.30970
H           7.08185        -0.65723        -1.36775
H           7.60162        -2.10975        -3.98109
H           9.17568        -1.34997        -2.61412
H           9.36819        -3.07856        -5.72413
H          11.30275        -1.96823        -3.72646
H           9.95887        -3.48180        -6.44963
H          13.47236        -2.61092        -4.88277
H          12.60773        -4.25052        -7.83269
H          15.51599        -3.26003        -6.05063
H          15.08623        -4.88093        -8.96691
H          15.58004        -3.91739        -7.23333
H          12.39845        -3.78664        -6.99809
H           6.72183        -2.46091        -4.61288

