%chk=OSCC1dCCdCCdCCdCC1dS.chk
%NProcShared=20
# opt freq b3lyp/6-31g(2df,p)

Title Card Required 

0  1
O           1.13097        -0.12372        -0.05843
S           2.85504        -0.03556         0.01416
C           3.88971        -1.40847        -1.11730
C           5.98068        -1.61650        -1.22513
C           5.77947        -2.57628        -2.04374
C           7.05499        -2.81285        -2.23251
C           7.35989        -3.73342        -2.98639
C           8.64236        -3.38450        -2.77430
C           9.38099        -4.17134        -3.34876
C          10.98924        -3.66054        -2.91231
C          10.14847        -2.68857        -2.09498
C           8.15688        -1.46697        -1.17342
S           6.85282        -0.33921        -0.22838
H           0.74226         0.60435         0.53217
H           3.14799        -1.25041        -2.08817
H           3.14868        -2.33751        -0.74278
H           4.94685        -3.06704        -2.44585
H           8.15691        -2.54490        -1.91393
H           6.93595        -4.42533        -3.54672
H           9.18356        -2.01385        -1.68263
H           9.36165        -4.93641        -3.95777
H          12.07758        -3.37295        -2.69301
H          10.74655        -3.83134        -3.05958

