%chk=SCC1CdC2CdCCdCCC2dCCdCC1.chk
%NProcShared=20
# opt freq b3lyp/6-31g(2df,p)

Title Card Required 

0  1
S           1.32839         0.23412         0.21418
C           3.27277         0.16125         0.07431
C           4.21577         1.16280         1.02644
C           5.27923         2.23932         0.79710
C           5.75366         2.91687         1.99071
C           4.86110         3.37913         3.04393
C           5.12590         3.41485         4.39585
C           5.87510         2.60774         5.31518
C           6.93601         1.78202         5.08813
C           7.65946         1.82644         3.84924
C           7.19277         2.85815         2.55870
C           8.10593         2.95369         1.64269
C           8.54957         1.56058         1.54143
C           7.45655         0.64316         1.38601
C           5.59585         0.46621         1.88191
H           0.91058        -0.65977        -0.74110
H           3.38807         0.34691        -0.99403
H           3.42570        -0.89603         0.31737
H           3.44089         1.89068         1.36161
H           5.83808         1.69035         0.00285
H           3.99954         3.90017         2.67544
H           4.57065         4.15176         4.94718
H           5.58458         2.61564         6.35231
H           7.32490         1.12579         5.86176
H           7.80916         0.74836         3.60570
H           8.67527         2.14275         4.15738
H           7.95965         3.45871         0.67455
H           9.41272         1.67848         2.27703
H           7.47828         0.85331         0.30367
H           5.38190         0.97128         2.84892
H           5.35328        -0.51173         2.27625

