%chk=SCC1dCCdCCdCCdCCdNNCdCCdC1.chk
%NProcShared=20
# opt freq b3lyp/6-31g(2df,p)

Title Card Required 

0  1
S           1.63689        -0.17525        -0.24924
C           4.14140        -1.02951        -1.43607
C           5.84654        -2.36119        -3.28619
C           5.09992        -1.22627        -1.70943
C           5.26064        -1.88933        -2.63062
C           7.09996        -1.81887        -2.53274
C           7.38315        -2.66598        -3.70963
C           8.60211        -2.74686        -3.82200
C           9.34750        -3.67280        -5.10842
C          10.46544        -3.47085        -4.82785
C           9.84521        -3.96185        -5.51000
N          11.52831        -4.37237        -6.08035
N          11.18039        -4.97351        -6.91552
C          13.26460        -5.28570        -7.34925
C          11.85865        -5.47088        -7.60651
C           9.68658        -4.64866        -6.46419
C           7.79574        -3.63705        -5.05876
H           0.58914         0.78745         1.08825
H           3.43273        -0.54250         0.37256
H           3.43273         0.53096        -0.40010
H           5.39471        -0.46302        -0.64903
H           4.31345        -2.29808        -3.19850
H           7.25026        -1.33348        -1.85837
H           6.42604        -3.58037        -4.98001
H           9.13497        -2.35110        -3.27218
H           8.27548        -4.36578        -6.07119
H          11.13153        -3.29817        -4.58795
H           9.58097        -5.27211        -7.33036
H          11.37514        -6.09080        -8.46778
H          14.60745        -5.31084        -7.38417
H          13.04978        -6.42058        -8.92594
H          11.63064        -5.47930        -7.61821
H           6.11255        -3.03827        -4.22686

