%chk=SCC1CdCCdCCdC2C[N]CdC21.chk
%NProcShared=20
# opt freq b3lyp/6-31g(2df,p)

Title Card Required 

0  2
S           1.70999         0.32387         0.49017
C           3.90207         0.75174         1.22699
C           5.38753         1.63591         2.50549
C           5.41486         1.22262         0.99596
C           5.79783         2.45031         1.05720
C           7.14929         1.88095         1.01971
C           7.83531         2.90555         1.34089
C           9.05067         2.57606         1.85437
C           8.86846         3.27134         2.90313
C          10.68461         3.80055         3.18054
N          10.03675         4.19981         4.34300
C           8.35834         3.89862         4.16625
C           7.01843         2.94559         3.50574
H           0.97139        -0.78853        -0.52443
H           3.79702         0.69097        -0.17260
H           3.75855        -0.47014         0.97213
H           4.15515         2.19085         2.34672
H           5.65362         0.29666         0.38047
H           5.20092         3.32934         1.96499
H           7.62138         0.90346         0.90803
H           7.08570         3.70279         1.71290
H           9.95172         2.09168         1.63200
H          11.44003         4.63151         2.60213
H          11.65222         3.07155         3.19838
H           8.74421         4.95190         4.96954

