%chk=SdC1CNdCCdCSC[SH]2CdC2C1.chk
%NProcShared=20
# opt freq b3lyp/6-31g(2df,p)

Title Card Required 

0  1
S           2.70280        -0.08375        -0.03296
C           4.96437        -0.42598        -0.26564
C           3.53848        -1.51235        -0.54037
N           4.88047        -1.52345        -0.45081
C           5.66948        -2.37974        -0.73433
C           7.00958        -2.44672        -0.13983
C           7.90023        -2.96141        -0.77892
S           9.60487        -1.30156        -0.02087
C          10.17851        -3.41067        -1.11209
S          11.52447        -2.42947        -0.76978
C          10.84401        -3.34710        -1.59683
C           9.15398        -2.18791        -1.53091
C           7.20502        -0.94222        -1.01732
H           3.15005        -1.56280        -1.54259
H           3.15066        -2.22722         0.20730
H           5.24312        -3.14180        -1.16483
H           7.92288        -1.24105         0.19214
H           7.76484        -3.88021        -1.45613
H          10.20757        -4.05531        -2.64069
H          10.31956        -4.73484        -0.64075
H          12.37130        -1.58229        -0.60462
H          12.33251        -4.07036        -1.54945
H           6.09169         0.16285        -0.48293
H           6.23085        -0.28254         0.26888

