%chk=SdC1SCdNc2sc1cnnc1cc2-1.chk
%NProcShared=20
# opt freq b3lyp/6-31g(2df,p)

Title Card Required 

0  1
S           2.15740         0.90159         0.73907
C           3.81087         0.58618         0.50649
S           3.52584        -1.11928        -0.75110
C           5.14176        -1.41171        -0.96674
N           6.31773        -1.86245        -1.29914
C           7.25183        -0.97164        -0.64138
S           6.61290         0.24704         0.25642
C           5.43356         1.26022         1.00352
C           6.20626         2.30501         1.77394
N           7.46769         1.87665         1.45807
N           8.68228         1.81135         1.40993
C           9.03257         0.74904         0.62659
C           9.79072        -0.13735        -0.02626
C           8.48237        -0.54919        -0.33234
H           5.05496        -0.58550        -0.35750
H           6.90744         3.06664         2.33557
H          10.77558        -0.29463        -0.14302

