%chk=Sdc1cc2ccccccccccnc1-2.chk
%NProcShared=20
# opt freq b3lyp/6-31g(2df,p)

Title Card Required 

0  1
S           2.61441         0.76904         0.02878
C           4.74504         1.59231         0.01421
C           4.32786        -0.32673         0.27178
C           5.61753         0.83811         0.06923
C           6.33071        -0.29854         0.05085
C           7.21551         0.53384         0.07777
C           8.46273         0.67545         0.09000
C           9.29896         1.55616         0.10562
C          10.58093         1.55154         0.08753
C          11.26435         2.56675         0.25325
C          12.60114         2.85724         0.27071
C          12.19271         4.08489         0.99095
C          12.68753         4.18098        -0.23650
C          10.69205         4.32059        -0.39632
N           8.63779         3.60705        -0.15577
C           6.73439         2.72552        -0.00598
H           3.70906        -1.79234        -0.09051
H           6.66604        -1.23312         0.07581
H           7.44520         1.44767         0.11606
H           8.96329        -0.13880         0.09132
H           9.54061         2.42753         0.09206
H          11.24797         0.88430         0.09600
H          10.10003         3.45758         0.54249
H          13.45003         2.16021         0.13168
H          12.26106         5.56401         0.48556
H          14.32725         3.75307         0.02395
H          12.39366         4.68377        -0.52275

