%chk=Sdc1ccccccc2cccsc-2n1.chk
%NProcShared=20
# opt freq b3lyp/6-31g(2df,p)

Title Card Required 

0  1
S           3.34901         1.54995        -0.81972
C           5.03242         1.08779        -1.98781
C           3.82275        -0.19898        -1.92769
C           4.72923        -1.02120        -1.44252
C           5.51845        -1.24920        -2.59574
C           6.81409        -1.17913        -2.34041
C           7.65604        -1.35866        -3.42082
C           8.87256        -0.87814        -3.15778
C           9.10640        -0.11286        -4.23042
C          10.24081        -0.87079        -4.76998
C          10.57800        -1.21166        -6.11613
C          10.00854        -0.25896        -6.86653
S           8.33241         0.93851        -6.17828
C           7.58720         0.89371        -4.15570
N           6.06999         1.26149        -3.32417
H           3.00154        -0.23587        -2.67190
H           5.25274        -0.61984        -0.53029
H           5.10873        -0.78058        -3.55437
H           7.20992        -0.49044        -1.56974
H           7.14982        -1.20810        -4.43401
H           9.49827        -0.42566        -2.41146
H          11.00732        -1.42305        -4.18052
H          11.34283        -2.03061        -6.46612
H          10.56787        -0.29236        -7.87778

