%chk=Sdc1cccccc2sccncssc-2c1.chk
%NProcShared=20
# opt freq b3lyp/6-31g(2df,p)

Title Card Required 

0  1
S           3.27359        -0.07268        -0.18928
C           5.40400         0.20939         0.04348
C           3.83369         1.11480         0.79060
C           4.97779         1.51156         1.11799
C           5.45935         2.43398         1.87915
C           6.71554         2.56474         1.98705
C           7.61934         3.28491         2.58132
C           8.88410         2.99180         2.33945
S           9.52308         4.33915         3.45125
C          11.13093         4.38504         3.48911
C          12.02499         5.12775         4.10198
N          13.17297         4.73103         3.77462
C          14.39526         4.89775         3.91218
S          13.59658         3.22029         2.52799
S          11.31388         1.99091         1.51355
C           9.05092         1.57804         1.17285
C           7.40551         0.71041         0.45691
H           3.04411         1.82715         1.37841
H           5.92613         1.31363         0.95467
H           4.78978         2.99001         2.33798
H           7.41652         2.03677         1.55138
H           7.08392         3.96721         3.14433
H          11.30220         3.60557         2.84592
H          12.05270         5.92388         4.75892
H          14.42524         5.98500         4.80935
H           6.79338        -0.12489        -0.23236

