%chk=SdC1CdCCdCSCdC2CdCCdC2CN1.chk
%NProcShared=20
# opt freq b3lyp/6-31g(2df,p)

Title Card Required 

0  1
S           2.44960         0.42858        -0.11646
C           4.28187         1.50553         0.03791
C           3.61711         1.54547         1.35120
C           4.74309         1.08125         1.90222
C           5.77880         2.02039         2.45827
C           7.09157         1.67135         1.80575
S           8.59475         1.91140         2.49037
C           9.76607         2.84665         1.74483
C          10.25425         3.80756         2.43315
C          11.72310         3.89970         2.48182
C          12.01747         4.98123         3.14888
C          10.26029         5.46745         3.24095
C           8.98284         4.59391         2.41405
C           7.15813         3.93008         1.65234
N           5.72574         2.65920         0.43269
H           2.71047         2.16357         1.33199
H           5.42789         0.36342         1.27591
H           5.09639         3.08546         2.15436
H           7.36589         1.22669         0.80453
H          10.38011         2.18249         1.29447
H          12.37187         3.13510         2.06599
H          13.20688         5.19731         3.28448
H          10.90553         6.38255         3.95933
H           7.09634         5.04300         2.02755
H           7.05537         4.00027         2.96388
H           5.65692         1.44113        -0.06506

