%chk=Sdc1ccccc2c1CdCCdCCdC2S.chk
%NProcShared=20
# opt freq b3lyp/6-31g(2df,p)

Title Card Required 

0  1
S           3.40895         1.05880        -0.85399
C           4.89240         0.39624        -0.23553
C           3.84628        -0.62472         0.71743
C           4.61986        -1.29742         1.34534
C           5.29267        -2.19493         2.18309
C           6.59990        -2.03011         2.02924
C           7.47565        -1.10016         1.16122
C           6.83372         0.09308         0.04743
C           7.99742         1.12639        -0.91707
C           9.33223         0.98377        -0.78395
C          10.47153         0.32387        -0.16799
C          10.12331        -0.58297         0.67847
C          10.21822        -1.55709         1.58772
C           8.96156        -1.90101         1.90873
S           9.19392        -3.25420         3.17181
H           2.80887        -0.86837         0.94486
H           5.31824        -0.77730         0.85985
H           4.73625        -2.84360         2.78856
H           6.52133        -1.27741         1.32666
H           8.31820         1.91516        -1.65331
H           8.67969         0.40236        -0.24125
H          11.52735         0.37552        -0.21620
H           9.11158        -0.57004         0.66640
H          11.14966        -1.93738         1.94268
H          10.60442        -3.39946         3.30741

