%chk=SdC1CdCc2c1cccc1cccc2-1.chk
%NProcShared=20
# opt freq b3lyp/6-31g(2df,p)

Title Card Required 

0  1
S           2.08883        -1.09419        -1.33586
C           3.74792        -2.00449        -2.46458
C           3.85603        -1.09477        -1.35825
C           5.09874        -0.99006        -1.20953
C           5.67687        -1.85164        -2.26305
C           4.96149        -2.94119        -3.62946
C           6.11738        -3.76547        -4.67890
C           7.86581        -3.69168        -4.62936
C           7.68929        -2.93090        -3.66738
C           7.92746        -2.17164        -2.66899
C           9.13817        -1.92184        -2.35215
C           8.94226        -1.05453        -1.28278
C           7.65259        -0.83162        -1.01627
C           6.93077        -1.59143        -1.94940
H           3.26635        -1.88873        -2.35332
H           5.33565        -0.30657        -0.36032
H           6.37393        -4.56349        -5.70791
H           9.00465        -3.80269        -4.70873
H           6.73932        -2.66653        -3.55437
H           9.89580        -2.38391        -2.92759
H           9.79205        -0.68120        -0.81586
H           7.25601        -0.21732        -0.25889

