%chk=SdC1NCdCCdCCqSrdC1[S-]S.chk
%NProcShared=20
# opt freq b3lyp/6-31g(2df,p)

Title Card Required 

-1  2
S           1.90486        -0.09819        -0.17619
C           3.79327        -0.04368         0.19716
N           3.37023         0.14259         1.47303
C           4.37713         0.24022         2.14175
C           5.28978         0.36056         2.96605
C           6.72232         0.23000         2.07178
C           7.41563         0.39591         3.20818
C           6.83481         0.14343         1.47881
S           9.03758         0.27359         2.37036
C           5.83003        -0.07955        -0.04857
S           4.47772        -0.31549        -1.66465
S           4.26265        -0.65311        -3.97720
H           2.50039         0.20967         1.93252
H           4.98768         0.13194         1.40005
H           4.92820         0.50102         3.92816
H           8.02251         0.06658         0.95240
H           6.98728         0.54506         4.22981
H           9.85668         0.48345         3.80781
H           3.22721        -0.82901        -5.18210

