%chk=SdCC1CdCCdC2CdCCdC2SC1dS.chk
%NProcShared=20
# opt freq b3lyp/6-31g(2df,p)

Title Card Required 

0  1
S           0.77330        -0.14183         0.21165
C           2.44403        -0.06945         0.06304
C           3.24718         1.07297         0.65114
C           4.52993         0.50307         1.23085
C           5.62103         1.07184         1.74733
C           6.19468         2.41908         1.60816
C           5.54151         3.60756         1.52359
C           6.05610         4.82507         2.20200
C           5.58083         4.54795         3.45023
C           4.23866         3.85058         3.21240
C           4.15984         3.60411         1.90503
S           2.92983         3.78230         0.72998
C           3.23981         2.32329        -0.22617
S           3.27397         2.30128        -1.90584
H           3.01270        -0.82049        -0.50860
H           2.68563         1.35927         1.55542
H           4.46738        -0.57908         1.39643
H           6.20029         0.42460         2.42571
H           7.24809         2.43362         1.90289
H           5.51249         5.69215         1.75620
H           6.34703         4.04702         4.05075
H           3.43732         3.81695         3.94283

