%chk=SdNNCCd[SH]CCC1CdCNdCCS1.chk
%NProcShared=20
# opt freq b3lyp/6-31g(2df,p)

Title Card Required 

0  1
S           1.24357        -0.40510        -0.20862
N           2.69003        -0.04861        -0.02081
N           3.31434        -1.25209        -0.40778
C           4.73110        -1.21168        -0.55732
C           5.22841        -2.49553        -1.16171
S           7.02316        -2.63543        -1.32448
C           7.10434        -4.32182        -2.02046
C           8.58404        -4.62700        -2.23194
C           8.90053        -5.93410        -2.96031
C           8.23225        -6.31505        -4.24296
C           8.39633        -5.79306        -5.47009
N           8.94600        -4.61085        -5.81727
C           9.98446        -4.07451        -5.24597
C          10.98355        -4.55494        -4.23810
S          10.70732        -6.05670        -3.28215
H           2.64295        -1.80411        -0.92428
H           5.17384        -1.12722         0.44250
H           5.10216        -0.38147        -1.17000
H           4.52341        -3.26534        -1.50536
H           7.35314        -2.84631        -0.06906
H           6.57427        -4.32337        -2.97584
H           6.64054        -5.03998        -1.33722
H           9.07809        -4.65450        -1.24707
H           9.02719        -3.77480        -2.75472
H           8.67925        -6.74948        -2.25752
H           7.59867        -7.19612        -4.18293
H           7.90471        -6.30343        -6.29806
H          10.20242        -3.05879        -5.62337
H          11.16691        -3.71895        -3.55215
H          11.91481        -4.69549        -4.79526

