%chk=SNC1dCSCdCSCdCSC1dCSS.chk
%NProcShared=20
# opt freq b3lyp/6-31g(2df,p)

Title Card Required 

0  1
S           1.30583         0.03388        -0.22964
N           3.17479         0.13840        -0.66788
C           4.47857         0.43992        -1.93215
C           5.10851         0.17779        -0.83306
S           6.39741         0.33775        -1.50374
C           7.89320         0.32588        -1.45399
C           8.38194         0.58792        -2.55267
S           9.86668         0.70049        -3.02469
C           9.68307         1.22770        -5.23521
C          10.05431         0.94622        -4.05504
S           7.68996         1.09412        -4.67515
C           5.40039         0.84727        -3.64013
C           3.69382         0.84428        -3.62758
S           1.63364         0.99361        -4.25369
S          -0.80319         0.83092        -3.57158
H           0.80224        -0.30113         1.17504
H           3.50042        -0.11312         0.38670
H           5.26771        -0.05291         0.13426
H           8.37893         0.13518        -0.65438
H           7.46022         0.69629        -3.00710
H          10.52253         1.40058        -5.96014
H          11.60439         0.94893        -4.06637
H           2.83271         0.61243        -2.65545
H          -1.94889         1.08137        -4.62170

