%chk=SNC1CdCdCSCdCSCdCCdCCdCS1.chk
%NProcShared=20
# opt freq b3lyp/6-31g(2df,p)

Title Card Required 

0  1
S           1.64264         0.46696         0.83411
N           3.14830         1.36412         2.42140
C           4.03988         2.41906         4.21602
C           4.63136         1.46858         2.36492
C           5.63961         2.03861         1.88105
C           6.18701         2.80559         2.70805
S           6.25071         2.61054         4.43187
C           6.92939         3.92167         5.19797
C           7.16735         4.05345         6.51714
S           7.90791         5.38068         7.28096
C           7.86018         5.12364         8.94636
C           8.42927         5.96637         9.82323
C           8.54939         5.54800        11.25653
C           8.10208         6.59086        11.86022
C           6.52075         5.60541        10.89677
C           5.61496         4.72963         9.19768
S           4.76075         3.68870         6.85276
H           0.76077        -0.60972        -0.51869
H           3.29414         0.95158         0.94289
H           3.46994         2.54166         2.78260
H           4.96014         0.67849         1.00697
H           6.79008         3.46688         2.22182
H           7.46313         4.56573         4.59964
H           6.77592         3.28768         7.18773
H           7.31749         4.19276         9.28952
H           8.94352         6.83794         9.54922
H           7.72645         4.65576        11.89484
H           9.23111         7.54091        11.86824
H           7.01296         5.91036        12.50338
H           6.47930         5.60538        10.38375

