%chk=SSC1dCCdc2[nH]ccc2dN[CH]1.chk
%NProcShared=20
# opt freq b3lyp/6-31g(2df,p)

Title Card Required 

0  2
S           1.30933         0.26225        -0.11290
S           3.38496         0.02107        -0.00888
C           4.08804         1.22838        -1.10404
C           4.67693         2.37355        -0.67391
C           5.24078         3.30562        -1.72097
C           6.44042         3.14148        -2.33794
N           7.25856         3.77220        -3.21074
C           8.54197         3.33732        -2.96481
C           8.55703         2.21842        -2.20636
C           7.06751         1.82573        -2.10017
N           6.38639         0.70511        -2.04518
C           4.93911         0.73702        -2.22748
H           0.84663        -0.70118         0.73527
H           5.36289         2.10220         0.15426
H           4.56744         3.96767        -2.23421
H           7.07357         4.66938        -3.63844
H           9.38163         3.95886        -3.28441
H           9.45395         1.81120        -1.76045
H           4.51896         1.22946        -3.12513

