%chk=C1dCCdNCdC2CdCCdC2CdCCdNCN[N]CdC1.chk
%NProcShared=20
# opt freq b3lyp/6-31g(2df,p)

Title Card Required 

0  2
C           2.98865         1.94973         0.68828
C           2.98438         0.62448         0.26536
C           3.31219        -0.90595        -0.25114
N           4.55614        -1.24046        -0.36758
C           5.14658        -2.39725        -0.75113
C           6.48765        -2.41732        -0.75797
C           7.34437        -3.52426        -1.11084
C           8.61494        -3.10850        -0.96920
C           8.61993        -1.73208        -0.52418
C           7.35276        -1.29444        -0.39377
C           6.96304         0.01519         0.01854
C           7.84575         0.94225         0.31715
C           7.44702         2.23540         0.73258
N           8.46295         3.02065         1.00593
C           7.65619         4.10078         1.36929
N           7.83617         5.39535         1.81411
N           6.05106         5.66177         1.53819
C           5.00439         4.41268         1.58333
C           3.88071         3.49849         0.97416
H           1.84860         2.06016         0.67096
H           4.08214         0.72410         0.19575
H           2.48095        -1.63664        -0.48858
H           4.57587        -3.26892        -1.02998
H           7.00730        -4.49167        -1.42607
H           9.50564        -3.68550        -1.15300
H           9.51889        -1.16072        -0.33341
H           5.92384         0.27283         0.09381
H           8.90524         0.83548         0.29289
H           6.34026         2.45937         0.79451
H           7.14605         3.79576         2.28588
H           7.20532         4.38349         0.39743
H           8.48717         5.81567         1.11670
H           4.37671         5.35905         1.72363
H           2.87919         3.92389         1.17668

