%chk=CC1CdCCdCNqCdOrCC2dCdCC2CqdOrC1.chk
%NProcShared=20
# opt freq b3lyp/6-31g(2df,p)

Title Card Required 

0  1
C           1.28369         0.23520        -0.14243
C           3.04168         0.90373        -0.62568
C           3.23139         1.89456         0.30756
C           4.58389         1.80947         0.44430
C           5.19518         2.94955        -0.07390
C           6.45600         2.96678        -0.50200
N           6.94308         4.15646        -0.76573
C           6.09301         5.23132        -0.27981
O           4.98229         5.31848         0.20554
C           8.33948         4.28666        -0.88878
C           8.19046         5.65935        -0.88431
C           8.94685         6.36213        -1.47587
C           8.88898         6.79855        -2.60587
C           6.96761         5.78594        -2.38960
C           5.35292         4.18824        -2.31304
O           4.40656         5.17433        -2.28765
C           4.15744         2.25021        -1.83634
H           0.80385         0.75374         0.73891
H           0.95646        -0.87554         0.21757
H           0.65752         0.32176        -1.00697
H           3.24205         0.05078         0.45114
H           2.44736         2.45894        -0.24816
H           5.17158         0.88759         0.07894
H           4.33893         3.67439        -0.45822
H           7.17215         2.19961        -0.48285
H           6.11824         6.11161        -0.85614
H           8.78908         4.07213        -1.89066
H           8.83967         4.40681         0.03582
H          10.14174         7.29569        -2.19311
H           6.58898         7.10584        -2.14130
H           4.61118         1.03321        -1.62182
H           3.54536         1.24068        -2.38934

