%chk=CC1CNCCCC2CCCCCCC12.chk
%NProcShared=20
# opt freq b3lyp/6-31g(2df,p)

Title Card Required 

0  1
C           0.76698        -0.22298         0.11886
C           2.18901        -0.27374        -0.47278
C           2.93950        -1.59377        -0.40869
N           2.10950        -2.61926        -1.00226
C           2.45381        -2.66640        -2.41352
C           1.14163        -2.92680        -3.09537
C           0.97135        -1.69214        -3.91211
C           1.03807        -0.17694        -3.19284
C           1.05829         0.51075        -4.61017
C           0.39796         1.84874        -4.65718
C           1.37612         2.74168        -3.98570
C           0.86477         3.04764        -2.61043
C           2.12005         3.29419        -1.84470
C           2.30275         1.99924        -1.12381
C           2.19008         0.46866        -1.88336
H           0.58580        -1.00148         0.85914
H           0.02160        -0.29907        -0.67320
H           0.56393         0.72916         0.62490
H           2.80597         0.29722         0.24864
H           3.12937        -1.88209         0.62963
H           3.91959        -1.49908        -0.88107
H           1.15974        -2.32200        -0.90179
H           3.22644        -3.37982        -2.65274
H           2.86896        -1.72078        -2.77340
H           0.25300        -3.04153        -2.46965
H           1.21110        -3.84943        -3.68945
H           0.00683        -1.81032        -4.44761
H           1.72017        -1.76463        -4.72693
H           0.03959        -0.06921        -2.75569
H           0.50109        -0.06300        -5.37128
H           2.08851         0.50748        -4.99663
H          -0.58232         1.79219        -4.16759
H           0.23444         2.17121        -5.68654
H           1.58484         3.65119        -4.54018
H           2.35218         2.22674        -3.92227
H           0.31009         2.19978        -2.16941
H           0.15407         3.86920        -2.59314
H           2.00358         4.15367        -1.17293
H           3.01932         3.49552        -2.43941
H           1.58465         2.08650        -0.29213
H           3.27550         2.07021        -0.59959
H           3.17609         0.38741        -2.35816

