%chk=CC1CCqNONrCCqCdOrNC1OCCNN.chk
%NProcShared=20
# opt freq b3lyp/6-31g(2df,p)

Title Card Required 

0  1
C           1.04871        -0.23917         0.31552
C           2.54756         0.00256         0.14213
C           3.10360        -1.33300        -0.37051
C           4.62866        -1.42190        -0.36902
N           5.09566        -0.99590         0.94306
O           6.45988        -1.33511         1.14664
N           6.94300        -0.36380         2.08562
C           5.16707        -0.61407        -1.56194
C           5.41171         0.87904        -1.28529
C           6.80785         1.04115        -0.65820
O           7.31100         2.09775        -0.30735
N           4.38252         1.55900        -0.48259
C           2.98892         1.21421        -0.75646
O           2.18612         2.37282        -0.50335
C           0.90649         2.30704        -1.13324
C           0.00049         3.44944        -0.72308
N          -1.38798         3.07181        -1.05712
N          -2.26521         4.16360        -0.77965
H           0.81379        -1.15126         0.86712
H           0.57597        -0.36261        -0.66704
H           0.60824         0.57473         0.90266
H           2.90366         0.19977         1.16225
H           2.70814        -1.51697        -1.38103
H           2.70542        -2.14856         0.24766
H           4.87966        -2.47810        -0.51942
H           4.61854        -1.46536         1.70401
H           7.95148        -0.43725         1.99429
H           6.67599        -0.79605         2.96299
H           4.46315        -0.68744        -2.40473
H           6.08345        -1.09659        -1.92352
H           5.49859         1.37896        -2.25871
H           7.42285         0.11750        -0.63779
H           4.52794         2.56630        -0.48410
H           2.89070         0.97790        -1.82267
H           0.34875         1.46561        -0.77494
H           0.98647         2.15721        -2.21404
H           0.31655         4.35658        -1.24325
H           0.08978         3.61839         0.35791
H          -1.66089         2.23009        -0.53153
H          -1.99169         4.98370        -1.32661
H          -2.23065         4.44618         0.20283

