%chk=CC1dCNCCqCrCqNONrdCCdC1.chk
%NProcShared=20
# opt freq b3lyp/6-31g(2df,p)

Title Card Required 

0  1
C           1.59305         0.09909         0.05299
C           3.72171         0.09512        -0.04024
C           3.50006         1.15579        -0.78886
N           4.72336         1.56608        -0.90235
C           4.85836         2.39891        -1.85275
C           6.21363         2.01473        -1.58843
C           6.94451         0.11821        -2.05760
C           7.07985         2.88399        -2.16146
N           6.81097         3.80796        -2.98301
O           5.52601         3.89790        -3.07130
N           5.06882         4.91181        -3.83251
C           8.46655         2.37677        -1.79403
C           7.52936         1.09903        -0.61720
C           5.77421         0.13918        -0.11740
H           0.76924         0.84516        -0.56341
H           0.79182         0.23070         1.05549
H           0.79055        -0.86139        -0.28448
H           2.63281         1.70123        -1.25857
H           5.93331         1.47790        -0.34678
H           5.05380         3.19224        -1.15369
H           5.05606         1.84702        -2.74212
H           6.66630         2.32591        -0.00818
H           6.95505         0.17678        -3.03267
H           6.77203        -0.67797        -1.29037
H           8.29314         0.06327        -1.74662
H           7.42090         4.41583        -3.46822
H           4.06604         4.74315        -3.76067
H           5.40772         4.58629        -4.72198
H           9.61670         2.01007        -1.46901
H           8.24064         2.09528        -1.68741
H           4.82531        -0.55188         0.45451

