%chk=CC1dCqCqNrNrCqCrCCCqCrCCqCrCC1.chk
%NProcShared=20
# opt freq b3lyp/6-31g(2df,p)

Title Card Required 

0  1
C           1.05268        -0.29586        -0.37406
C           2.57978        -0.19266        -0.43126
C           3.30490         0.96599        -0.71563
C           5.08701         0.95760        -1.05163
N           6.32530         1.38452        -0.33589
N           5.61616        -0.39107        -1.11031
C           2.40294         2.46149        -0.24634
C           1.10268         2.38441         0.69424
C           3.14350         3.60460         0.65381
C           3.49989         3.27709         2.31689
C           4.11118         1.84661         2.75044
C           4.56935         1.61685         1.44976
C           3.30698         0.48340         2.92495
C           4.08052        -0.88289         2.49762
C           4.48951        -1.53551         3.80764
C           3.26624        -1.83536         1.54575
C           3.11981        -1.56093        -0.00542
H           0.54637         0.54303        -0.84346
H           0.70513        -0.44346         0.65824
H           0.67536        -1.14602        -0.95605
H           5.18741         1.46891        -2.00685
H           6.50493         0.88861         0.54757
H           6.39647         2.36963        -0.09731
H           5.41964        -0.81467        -0.20670
H           6.62970        -0.25894        -1.01666
H           2.07546         2.89677        -1.20284
H           1.34263         1.99057         1.68338
H           0.21157         1.86279         0.36112
H           0.71512         3.39580         0.89238
H           2.51054         4.50938         0.68575
H           4.03090         3.94466         0.10220
H           2.66464         3.54305         2.95956
H           4.31311         4.00001         2.51022
H           5.00375         1.90438         3.38616
H           3.59414         1.49524         1.07768
H           4.95728         0.64829         1.19763
H           5.03248         2.45747         0.96333
H           2.40397         0.48228         2.31070
H           2.95939         0.43622         3.95243
H           5.06553        -0.78285         2.02690
H           3.61378        -1.70934         4.43109
H           5.17318        -0.85444         4.33216
H           5.02186        -2.47533         3.64187
H           2.26438        -1.94815         1.97164
H           3.72703        -2.83326         1.60478
H           2.41757        -2.32917        -0.37542
H           3.99998        -1.86579        -0.55964

