%chk=CC1NqCCqCrqCrCrCCC1qNrN.chk
%NProcShared=20
# opt freq b3lyp/6-31g(2df,p)

Title Card Required 

0  1
C           1.23116        -0.52857        -0.51817
C           2.60961        -0.19770         0.03848
N           2.94276         0.96914         0.91178
C           2.11077         1.27843         2.10564
C           0.72409         2.00630         1.92966
C           0.93073         3.33036         1.17863
C          -0.30609         1.23143         1.13417
C           0.02485         2.19802         3.28752
C           4.32985         0.60504         1.33508
C           4.35329        -0.90802         1.56859
C           3.18400        -1.44843         0.75653
N           2.22420        -2.15067         1.58556
N           3.54769        -2.48716        -0.17913
H           0.86762         0.25109        -1.18887
H           0.55585        -0.75020         0.30234
H           1.19049        -1.44705        -1.10699
H           3.20738        -0.01063        -0.86965
H           2.70497         1.98689         2.71010
H           2.00659         0.40519         2.75478
H           1.50701         3.16285         0.25925
H           1.46146         4.07071         1.78034
H          -0.02969         3.75622         0.86656
H           0.02156         1.23817         0.10902
H          -1.28844         1.70387         1.06170
H          -0.46324         0.23901         1.56871
H           0.54071         2.89814         3.94465
H          -0.06983         1.23364         3.80595
H          -0.99998         2.56599         3.13830
H           4.69985         1.15493         2.20889
H           5.02318         0.84556         0.51598
H           4.23336        -1.12159         2.63779
H           5.31063        -1.34526         1.26021
H           1.87455        -1.51221         2.31133
H           2.69003        -2.90202         2.05515
H           4.12567        -2.07251        -0.91521
H           2.68737        -2.75560        -0.64970

