%chk=CCC1CCCOCOOC1C1CONN1.chk
%NProcShared=20
# opt freq b3lyp/6-31g(2df,p)

Title Card Required 

0  1
C           0.64458        -0.39444        -0.45793
C           2.12608        -0.22948        -0.20082
C           2.87207        -1.10337         0.84692
C           4.36676        -0.80109         0.64152
C           4.86853         0.48542         1.29270
C           4.01906         1.79859         1.22320
O           3.20124         2.19682         2.34919
C           1.82576         1.86026         2.69494
O           1.18923         0.88605         1.91265
O           1.14083        -0.39706         2.62398
C           2.35288        -1.15614         2.36031
C           3.23208        -1.03555         3.68997
C           4.52326        -1.80507         3.81801
O           5.49161        -0.96916         4.48249
N           4.88466         0.32315         4.66004
N           3.58431         0.32847         4.11471
H           0.33651         0.45187        -1.08712
H           0.02103        -0.34184         0.43463
H           0.42553        -1.32491        -0.97312
H           2.22769         0.80766         0.07178
H           2.64664        -0.28388        -1.16486
H           2.74728        -2.13299         0.46824
H           4.61432        -0.76689        -0.43001
H           4.96582        -1.65815         0.97747
H           5.87771         0.68164         0.90358
H           5.09983         0.21780         2.30241
H           3.58713         1.98867         0.24005
H           4.80286         2.56642         1.25497
H           1.22051         2.77097         2.73449
H           1.77187         1.55304         3.74908
H           1.99753        -2.19923         2.42900
H           2.55742        -1.36813         4.49087
H           4.96554        -2.10718         2.87650
H           4.39244        -2.69317         4.43866
H           5.49924         0.95525         4.10633
H           3.57875         0.91176         3.30149

