%chk=CCC1CdCCdCCdCqCrCCqOrC1.chk
%NProcShared=20
# opt freq b3lyp/6-31g(2df,p)

Title Card Required 

0  1
C           1.21837        -0.16050        -0.29689
C           3.07458        -0.23610        -0.74640
C           4.39102        -1.03303        -2.22333
C           5.02096        -1.09939        -0.95690
C           5.53126        -2.18326        -1.47745
C           6.90419        -1.93992        -1.54256
C           7.48212        -2.78130        -2.36462
C           8.85472        -2.77814        -2.32201
C           9.27005        -3.61421        -3.31795
C           8.62708        -4.38082        -4.87366
C          10.10287        -2.40850        -3.51492
C           8.33940        -1.81870        -4.26128
O          10.01352        -2.52047        -4.99897
C           6.06976        -1.43443        -3.55501
H           0.85432         0.51621         0.61456
H           0.73023        -1.10665         0.02571
H           0.66099         0.31176        -1.09993
H           3.15117        -0.56764         0.47731
H           3.12971         0.85842        -0.50254
H           3.37681        -1.91130        -1.81446
H           5.25303        -0.23186        -0.36270
H           4.95329        -2.79227        -2.37940
H           7.39171        -1.02273        -1.21245
H           6.97463        -3.23234        -3.31661
H           9.45639        -1.77257        -2.05519
H           7.55980        -4.13586        -4.93036
H           9.15024        -5.30800        -4.86576
H           8.94051        -3.96207        -6.04279
H          11.03843        -3.37019        -3.08753
H          11.26073        -1.85197        -3.87590
H           8.83041        -2.62484        -5.22260
H          11.14605        -3.12160        -4.73364
H           4.94553        -1.83067        -4.05783
H           5.36883        -0.50885        -3.79284

