%chk=CCC1CNCCCCCqCrCCC1C.chk
%NProcShared=20
# opt freq b3lyp/6-31g(2df,p)

Title Card Required 

0  1
C           0.96911        -0.03739         0.33891
C           2.48546        -0.09963         0.17420
C           2.94547        -0.89175        -1.07020
C           2.14038        -2.22910        -1.12490
N           2.82925        -3.32181        -1.81184
C           2.12116        -3.75094        -3.02183
C           3.04593        -4.60014        -3.90575
C           4.32865        -3.86245        -4.29151
C           4.08692        -2.59829        -5.12522
C           5.08403        -1.43505        -4.90653
C           6.25153        -1.75460        -3.96732
C           4.35202        -0.12415        -4.52497
C           4.28060         0.18399        -3.01999
C           2.87768        -0.07072        -2.41857
C           2.22982         1.32531        -2.35040
H           0.69522         0.70543         1.08994
H           0.57096        -1.00292         0.66505
H           0.45145         0.20724        -0.58906
H           2.89934        -0.58513         1.06821
H           2.92072         0.90453         0.17100
H           3.99345        -1.16538        -0.87881
H           1.14540        -2.04973        -1.54501
H           1.97854        -2.58285        -0.09787
H           2.88024        -4.12228        -1.18541
H           1.76678        -2.88604        -3.58302
H           1.23543        -4.33706        -2.75168
H           2.51023        -4.91273        -4.80896
H           3.32702        -5.51362        -3.36704
H           4.99350        -4.53280        -4.84879
H           4.84388        -3.64824        -3.35534
H           3.06303        -2.23227        -5.01286
H           4.13434        -2.89092        -6.18439
H           5.52962        -1.23985        -5.89259
H           5.91181        -2.01672        -2.95912
H           6.91894        -0.89420        -3.86397
H           6.83439        -2.60181        -4.33668
H           3.35225        -0.08723        -4.98027
H           4.89147         0.70369        -5.00497
H           4.54807         1.24470        -2.90648
H           5.05278        -0.31550        -2.44094
H           2.28690        -0.65896        -3.12786
H           2.77974         1.99151        -1.67507
H           1.18610         1.30029        -2.04889
H           2.24683         1.79919        -3.33885

