%chk=CCCCN1CCdCqCNrOC1C.chk
%NProcShared=20
# opt freq b3lyp/6-31g(2df,p)

Title Card Required 

0  1
C           1.00350         0.07990        -0.12214
C           2.51737         0.11566        -0.12217
C           3.01309        -0.66698         1.07270
C           4.53508        -0.75500         1.05773
N           5.04260        -1.54877         2.17030
C           4.39156        -2.83557         2.30015
C           5.23479        -4.02472         2.20733
C           6.56148        -3.94975         2.10137
C           7.36571        -5.20521         1.96464
N           8.79707        -4.95944         1.91267
O           7.23478        -2.75966         2.10477
C           6.50647        -1.52901         2.19628
C           6.93499        -0.78883         3.46080
H           0.61203         0.64515        -0.96813
H           0.61293         0.50575         0.80757
H           0.64250        -0.95295        -0.19556
H           2.88802         1.14356        -0.07612
H           2.89784        -0.34133        -1.04404
H           2.53776        -1.64888         1.00278
H           2.66944        -0.22620         2.01643
H           4.93259         0.26739         1.12821
H           4.88460        -1.17783         0.10755
H           3.67698        -3.01666         1.49553
H           3.82451        -2.85428         3.23689
H           4.72270        -4.97964         2.17238
H           7.05552        -5.73103         1.05233
H           7.14545        -5.85900         2.81567
H           8.97312        -4.34308         1.12071
H           9.28356        -5.83184         1.73937
H           6.88625        -0.93698         1.35178
H           6.69894        -1.37234         4.35614
H           6.44259         0.18825         3.53907
H           8.01714        -0.62055         3.45769

