%chk=CCCCCCdCqCrCOCCCCqCOrCqCrCC.chk
%NProcShared=20
# opt freq b3lyp/6-31g(2df,p)

Title Card Required 

0  1
C           1.05827        -0.01378         0.05874
C           2.57424        -0.01226         0.05834
C           3.10789         1.36307        -0.31008
C           4.63052         1.35948        -0.30910
C           5.13804         2.74135        -0.67920
C           6.62841         2.80170        -0.69710
C           7.31141         3.92616        -0.99994
C           6.63000         5.22344        -1.34416
C           8.81025         3.88221        -0.99376
O           9.33214         5.14411        -1.36657
C          10.75026         5.11797        -1.35330
C          11.20460         6.51425        -1.69562
C          12.71741         6.60697        -1.68894
C          13.25640         8.00821        -2.05053
C          12.76362         9.08260        -1.04849
O          11.35806         9.27739        -1.04965
C          14.81866         7.97733        -2.11290
C          15.33259         6.92521        -3.11277
C          15.38922         9.36479        -2.47639
C          16.90636         9.41382        -2.46645
H           0.68237        -1.00520         0.32434
H           0.66993         0.24972        -0.93026
H           0.66992         0.70885         0.78356
H           2.94311        -0.75675        -0.65653
H           2.94310        -0.29968         1.04965
H           2.73868         2.11180         0.40237
H           2.73870         1.65534        -1.30144
H           5.00474         0.61801        -1.02573
H           5.00480         1.07550         0.68217
H           4.75545         3.46840         0.04773
H           4.75446         3.00785        -1.67184
H           7.17897         1.89581        -0.45430
H           5.53839         5.15448        -1.32467
H           6.90344         5.54259        -2.35454
H           6.90626         6.00322        -0.62785
H           9.16476         3.13344        -1.71144
H           9.17122         3.62764         0.01008
H          11.12029         4.39304        -2.08534
H          11.10975         4.84768        -0.35331
H          10.75598         7.16748        -0.94698
H          10.80657         6.82056        -2.67121
H          13.06957         5.86503        -2.41303
H          13.11088         6.30130        -0.71112
H          12.87007         8.26118        -3.04759
H          13.16690        10.06606        -1.28103
H          13.07326         8.81870        -0.03174
H          11.05159         9.28506        -1.97192
H          15.19180         7.70195        -1.11650
H          14.98301         7.15168        -4.12543
H          15.01835         5.91145        -2.85582
H          16.42427         6.87876        -3.12821
H          15.06499        10.11853        -1.75439
H          15.00805         9.67566        -3.45653
H          17.28704         9.12579        -1.48145
H          17.24650        10.42927        -2.68558
H          17.34169         8.75468        -3.21964

