%chk=CCCqCrCNqCrNdCCCdO.chk
%NProcShared=20
# opt freq b3lyp/6-31g(2df,p)

Title Card Required 

0  1
C           0.94137         0.09538        -0.10517
C           2.46826         0.02114        -0.11421
C           2.95841        -1.32596         0.44926
C           2.42235        -2.46488        -0.44062
C           4.50044        -1.39643         0.57656
N           5.05445        -2.60154         1.22885
C           4.13194        -3.57614         1.80260
N           6.41036        -2.75139         1.25862
C           6.86351        -3.85528         1.76531
C           8.32955        -4.12746         1.89103
C           8.61199        -5.45658         2.53319
O           9.75118        -5.87726         2.73683
H           0.59379         1.04839        -0.50825
H           0.55557        -0.01813         0.91397
H           0.49099        -0.68816        -0.72151
H           2.86376         0.85098         0.48387
H           2.83588         0.15518        -1.13773
H           2.54067        -1.39035         1.46354
H           2.72491        -2.31087        -1.47920
H           1.33377        -2.52867        -0.38130
H           2.77033        -3.46124        -0.17299
H           4.85251        -0.51744         1.13552
H           4.93354        -1.30137        -0.42962
H           3.08443        -3.28507         1.85925
H           4.38688        -3.79107         2.84227
H           4.17413        -4.50147         1.21399
H           6.20373        -4.65528         2.13638
H           8.77334        -3.34220         2.50872
H           8.77168        -4.11994         0.89172
H           7.74276        -6.06813         2.82904

