%chk=CCOC1qCOCCqCrCCrCCC1.chk
%NProcShared=20
# opt freq b3lyp/6-31g(2df,p)

Title Card Required 

0  1
C           0.91282         0.07184        -0.04052
C           2.41667         0.12772         0.06653
O           2.98894        -1.01869        -0.54183
C           4.44009        -1.01234        -0.72933
C           4.68833        -1.02605        -2.24685
O           6.08216        -0.99429        -2.56425
C           6.28129        -1.02678        -3.98057
C           7.78463        -1.07031        -4.28155
C           8.41378        -2.30633        -3.62967
C           8.01293        -1.04048        -5.80310
C           9.48593        -1.00638        -6.18374
C           5.26089         0.02535         0.11392
C           6.24106        -1.08948         0.48706
C           5.15384        -2.11157         0.11708
H           0.47278         0.91271         0.50249
H           0.53383        -0.86428         0.37960
H           0.59610         0.11633        -1.08634
H           2.68958         0.12730         1.12544
H           2.79445         1.03480        -0.41766
H           4.21128        -0.15078        -2.70167
H           4.24468        -1.92833        -2.68413
H           5.83287        -0.13013        -4.42508
H           5.78718        -1.91045        -4.40317
H           8.24969        -0.18393        -3.83111
H           7.99607        -3.22558        -4.05372
H           8.23617        -2.31926        -2.54970
H           9.49808        -2.32613        -3.76868
H           7.52525        -0.15348        -6.22747
H           7.54046        -1.91264        -6.27148
H           9.98095        -0.13683        -5.74057
H           9.59644        -0.94835        -7.27061
H          10.00822        -1.90827        -5.85269
H           4.76703         0.42227         1.00627
H           5.67830         0.87419        -0.43758
H           6.54728        -1.09455         1.53918
H           7.13493        -1.12189        -0.14031
H           4.55832        -2.44246         0.97714
H           5.51005        -2.99925        -0.41536

