%chk=CCqdNrCCC1dCCdNCdCC1qCrCCO.chk
%NProcShared=20
# opt freq b3lyp/6-31g(2df,p)

Title Card Required 

0  1
C           0.94586         0.03545        -0.12094
C           2.43814         0.07147        -0.13307
N           3.12976        -0.53584        -1.04457
C           3.10763         0.84762         0.98256
C           4.60493         0.77780         0.80637
C           5.44159         1.43279         1.89536
C           5.34431         2.76445         1.97531
C           5.88006         3.65701         3.00907
N           6.59835         3.48657         4.06452
C           7.09531         2.29885         4.46563
C           6.98510         1.06561         3.96607
C           6.23634         0.48866         2.79010
C           5.17646        -0.38336         3.49931
C           7.36129        -0.24194         1.97593
C           6.98938        -0.84549         0.62856
O           8.11056        -1.42483        -0.01402
H           0.56336        -0.52390        -0.97525
H           0.58367         1.06534        -0.15747
H           0.61591        -0.43377         0.80927
H           2.53703        -1.02058        -1.72564
H           2.81655         0.38872         1.93474
H           2.75401         1.87989         0.97317
H           4.90574         1.16651        -0.17616
H           4.78121        -0.29486         0.78626
H           4.74227         3.28834         1.23518
H           5.56213         4.69920         2.84440
H           7.68676         2.37851         5.37822
H           7.51869         0.30094         4.53988
H           4.50163         0.27817         4.07172
H           5.60443        -1.08774         4.21851
H           4.54295        -0.95567         2.81974
H           7.83185        -1.02950         2.58045
H           8.17323         0.47737         1.77616
H           6.64817        -0.06960        -0.05911
H           6.23059        -1.62163         0.75858
H           8.60993        -0.67829        -0.38888

