%chk=CCqSrdC1CdCCCCC1C.chk
%NProcShared=20
# opt freq b3lyp/6-31g(2df,p)

Title Card Required 

0  1
C           1.13146        -0.14755        -0.20857
C           2.63279        -0.05511        -0.07840
S           3.53742        -0.51647        -1.51828
C           3.26062         0.26931         1.08302
C           4.72791         0.24357         1.21889
C           5.39875        -0.28552         2.25378
C           4.82646        -1.00299         3.45172
C           3.43314        -1.59987         3.24615
C           2.34823        -0.52889         3.33789
C           2.57769         0.67347         2.40328
C           1.28102         1.47695         2.28601
H           0.79323        -0.55031        -1.16711
H           0.67727         0.84438        -0.13480
H           0.72272        -0.81247         0.56150
H           2.52169        -0.76690        -2.35703
H           5.30077         0.69258         0.40625
H           6.48785        -0.23089         2.23578
H           4.81419        -0.30580         4.29881
H           5.50806        -1.81579         3.72543
H           3.23787        -2.36590         4.00467
H           3.37189        -2.11755         2.27905
H           2.30562        -0.15814         4.37180
H           1.37476        -0.99330         3.14195
H           3.26411         1.36546         2.91820
H           0.44005         0.84586         1.98932
H           1.39328         2.29549         1.56808
H           0.99584         1.90325         3.25192

