%chk=CdCCCCqCrdCqOrCO.chk
%NProcShared=20
# opt freq b3lyp/6-31g(2df,p)

Title Card Required 

0  1
C           1.01465         0.05638         0.01100
C           2.35700         0.06164         0.00723
C           3.11733         1.07983        -0.77897
C           4.63817         0.93890        -0.66842
C           5.43935         1.96073        -1.45880
C           4.69928         3.00499        -2.27325
C           6.79416         1.97884        -1.45255
O           7.56164         1.09547        -0.71338
C           7.58369         2.99644        -2.25378
O           8.98596         2.84260        -2.09476
H           0.46063        -0.67974         0.57896
H           0.45200         0.79146        -0.55698
H           2.90245        -0.68096         0.58000
H           2.82567         2.07538        -0.42007
H           2.82667         0.98270        -1.83315
H           4.91918        -0.06731        -1.00898
H           4.91917         1.01239         0.39106
H           3.61251         2.94323        -2.22346
H           4.95432         2.91455        -3.33366
H           4.95196         4.00979        -1.91867
H           6.98926         0.42836        -0.30034
H           7.32980         4.00701        -1.92078
H           7.35420         2.89980        -3.31929
H           9.12328         2.70630        -1.14134

