%chk=CdCCdCqCrPOC[PH]qdOrCCdC.chk
%NProcShared=20
# opt freq b3lyp/6-31g(2df,p)

Title Card Required 

0  1
C           1.07924         0.04933         0.10836
C           2.42511         0.03759         0.11894
C           3.26532         1.06461         0.71212
C           4.62383         1.07681         0.69568
C           5.46334         0.00526         0.06645
P           5.47975         2.55843         1.39239
O           7.08486         2.20272         1.40360
C           7.88737         3.27283         1.97193
P           9.68655         2.98378         1.80378
O           9.94531         4.31418         2.53523
C          11.48574         2.69473         1.63563
C          12.13893         2.56380         2.98149
C          13.45398         2.36206         3.13625
H           0.54353        -0.76158        -0.37717
H           0.49193         0.83660         0.55875
H           2.89038        -0.80471        -0.37810
H           2.71777         1.89082         1.16700
H           4.87653        -0.79181        -0.39618
H           6.09040        -0.47963         0.81962
H           6.08682         0.42205        -0.72844
H           5.14762         2.42432         2.76595
H           7.66100         3.34648         3.04358
H           7.64862         4.22112         1.47248
H           9.51989         1.70137         2.37108
H          11.92842         3.51693         1.06293
H          11.61175         1.76681         1.06793
H          11.51688         2.69567         3.86534
H          14.11356         2.26651         2.28087
H          13.89429         2.31424         4.12671

