%chk=Cn1cnccc2ccsscd2c1dS.chk
%NProcShared=20
# opt freq b3lyp/6-31g(2df,p)

Title Card Required 

0  1
C           1.70622        -0.03597        -0.07050
N           3.36072        -0.35023        -0.81885
C           2.95522        -0.51358        -2.04469
N           3.68316        -0.70085        -2.96581
C           5.02055        -0.33866        -3.09057
C           6.22283         0.26723        -2.34698
C           7.41963        -0.30608        -2.76913
C           8.93674        -0.15801        -3.26226
C           9.32685        -0.60896        -4.52245
S           9.70916        -2.24889        -4.16314
S           7.28773        -2.49272        -3.66529
C           6.65351        -1.30657        -1.93298
C           5.13031        -0.83465        -0.80384
S           5.19468         0.23236         0.81299
H           0.90506        -0.22176        -0.90014
H           1.22801         0.99154         0.12334
H           1.19301        -0.74920         0.63258
H           1.87292        -0.55176        -2.19151
H           5.03242        -0.92222        -4.04163
H           6.81843         0.23859        -1.07892
H           9.67859        -0.53659        -2.42631
H           8.85404        -0.80668        -5.53214

