%chk=CNC1dCCNNCdCCdCCNqCrNdC1.chk
%NProcShared=20
# opt freq b3lyp/6-31g(2df,p)

Title Card Required 

0  1
C           1.36721        -0.11187         0.30476
N           3.26494        -0.59456         0.91932
C           4.68302        -1.56554         2.11562
C           4.82758        -0.70120         1.05645
C           5.56470        -1.44183         2.00938
N           6.94904        -1.23683         1.72872
N           7.85558        -1.81379         2.51495
C           9.09455        -1.86964         2.65169
C           9.57724        -2.37738         3.88866
C          11.06819        -2.55804         3.53524
C          11.42167        -3.35141         4.60922
C          12.67244        -3.62265         4.71696
N          10.48715        -3.84969         4.73584
C          12.23344        -4.59732         5.99891
N           8.29278        -3.53640         3.74441
C           6.53293        -2.64836         3.32157
H           0.75787         0.66204        -0.69301
H           0.68394         0.43525         1.04514
H           0.68398        -0.96511        -0.04129
H           3.16208         0.30692        -0.23848
H           5.19305        -0.10421         0.29547
H           5.29187        -2.91784         1.86880
H           5.28867        -0.94340         3.39760
H           7.02346        -0.29506         1.98384
H           7.87710        -2.52214         3.53991
H           9.61750        -1.41111         1.96139
H           8.53924        -3.16502         5.03399
H          11.77764        -2.16233         2.94510
H          10.89246        -4.35412         5.86466
H          13.59270        -2.55754         4.89592
H          13.59445        -3.95605         3.80775
H          11.69500        -5.08020         6.70858
H          12.90801        -4.63740         7.49332
H          12.91420        -5.96614         6.47362
H           5.01363        -2.61825         3.48844

