%chk=COC1CCCqCrCqCrdCCNCCO1.chk
%NProcShared=20
# opt freq b3lyp/6-31g(2df,p)

Title Card Required 

0  1
C           1.77294         0.23698         0.57531
O           3.50533         0.49762         1.49337
C           5.17059         1.23560         2.61389
C           5.15694         0.81394         1.03810
C           5.15112         2.18236         2.12950
C           6.68947         2.16642         1.81075
C           7.06259         2.33423         0.44925
C           6.90042         3.50282         2.53676
C           5.93305         3.81431         3.87022
C           8.19526         3.62915         2.75747
C           8.27807         4.43941         4.04259
N           9.65057         4.49012         3.75908
C           9.79247         4.38417         5.10530
C           8.89202         2.57815         4.44721
O           6.98036         1.74738         3.68294
H           1.12766        -0.63596        -0.44161
H           0.94741         1.03715        -0.01579
H           0.89228        -0.27205         1.20569
H           3.74250         1.80976         1.92488
H           4.82266         1.21412        -0.00277
H           4.97930        -0.29295         1.23117
H           4.02918         1.90597         3.29642
H           4.60677         3.10353         1.72411
H           6.98091         0.95647         2.15017
H           6.60635         3.29550         0.32390
H           6.65847         1.54113        -0.14521
H           8.11918         2.26605         0.59144
H           4.92927         3.46482         3.71047
H           6.00484         4.87188         3.85261
H           6.15312         3.44310         4.92615
H           8.88691         2.59633         2.54597
H           8.11123         3.96506         5.28561
H           8.30395         5.47119         4.04637
H          10.45889         4.38169         3.18930
H          10.27928         4.53411         6.23480
H          10.25629         5.69727         4.97813
H          10.12369         2.86019         5.28851
H          10.40345         3.01498         4.35240

