%chk=COC1qCrCCCqCrCqCqCrSCrCC1.chk
%NProcShared=20
# opt freq b3lyp/6-31g(2df,p)

Title Card Required 

0  1
C           0.95236         0.11145        -0.29030
O           2.35612         0.01277        -0.03780
C           2.73016        -0.69784         1.16997
C           2.07200        -0.01160         2.38340
C           2.30056        -2.15972         1.00937
C           2.65557        -3.05394         2.18067
C           4.13175        -3.47151         2.14746
C           4.14542        -4.95646         2.49572
C           5.06702        -2.54139         2.99306
C           5.05388        -2.78788         4.55768
C           5.60419        -4.14684         5.00421
S           6.09543        -1.51885         5.44386
C           5.78154        -1.94232         7.17732
C           4.86261        -1.02242         2.65699
C           4.28462        -0.62560         1.28470
H           0.79815         0.64753        -1.22854
H           0.44273         0.67969         0.49159
H           0.48407        -0.87022        -0.39846
H           0.98181        -0.01089         2.31954
H           2.39992         1.03128         2.44690
H           2.29157        -0.49701         3.33617
H           2.71597        -2.56445         0.07652
H           1.21564        -2.23190         0.88221
H           2.01196        -3.93743         2.08456
H           2.38877        -2.60883         3.13770
H           4.50283        -3.42488         1.11753
H           3.57833        -5.13721         3.41264
H           5.16725        -5.34255         2.57303
H           3.63824        -5.54032         1.72100
H           6.09087        -2.77718         2.65548
H           4.02187        -2.66577         4.91288
H           6.64067        -4.28533         4.67518
H           5.03786        -5.00138         4.65830
H           5.55083        -4.28177         6.08328
H           6.33905        -1.24803         7.80924
H           6.14194        -2.94243         7.42501
H           4.71743        -1.85861         7.41066
H           5.83529        -0.51988         2.74539
H           4.26215        -0.56058         3.44629
H           4.76812        -1.21003         0.48939
H           4.59128         0.40978         1.07449

