%chk=COCqdOrCdCOCCCdO.chk
%NProcShared=20
# opt freq b3lyp/6-31g(2df,p)

Title Card Required 

0  1
C           1.17988        -0.04158         0.02325
O           2.61953        -0.03850        -0.00052
C           3.16193         0.12208        -1.23883
O           2.52761         0.25679        -2.27757
C           4.64574         0.11303        -1.16899
C           5.39611         0.25658        -2.27594
O           6.77219         0.25095        -2.23254
C           7.44454         0.41482        -3.49621
C           8.95480         0.38337        -3.25367
C           9.75129         0.54791        -4.52247
O          10.98006         0.55037        -4.54144
H           0.83922        -0.17557         1.05646
H           0.78125        -0.87120        -0.57105
H           0.78125         0.91218        -0.33978
H           5.10488        -0.01314        -0.19605
H           4.96330         0.38434        -3.26118
H           7.16361         1.37244        -3.95277
H           7.16361        -0.39466        -4.18193
H           9.24232        -0.56802        -2.79287
H           9.24232         1.18575        -2.56544
H           9.18493         0.66951        -5.46022

