%chk=CSCNqCrCC[SH]qCr[PH]qdOrCSC.chk
%NProcShared=20
# opt freq b3lyp/6-31g(2df,p)

Title Card Required 

0  1
C           1.01018        -0.11750        -0.14296
S           2.79270         0.15720        -0.07574
C           3.38228        -1.08427        -1.29415
N           4.86181        -1.16425        -1.29313
C           5.35167        -1.68313        -0.01322
C           5.34654        -1.99099        -2.41994
C           6.88295        -2.00716        -2.52816
S           7.47669        -3.07320        -3.80200
C           6.89350        -2.45181        -5.34223
P           9.59669        -3.07320        -3.80200
O           9.43718        -3.91446        -2.54781
C          11.42669        -3.07320        -3.80200
S          11.88910        -4.26960        -5.10139
C          13.69552        -4.21500        -4.95569
H           0.54590         0.48112         0.64883
H           0.75117        -1.16446         0.03135
H           0.60959         0.21809        -1.10129
H           3.02863        -0.74296        -2.27210
H           2.93427        -2.06356        -1.09051
H           5.02970        -1.07976         0.83330
H           6.44680        -1.64198         0.03713
H           5.03324        -2.72056         0.15558
H           4.94171        -1.60123        -3.35115
H           4.97596        -3.02798        -2.32633
H           7.34822        -2.39621        -1.62832
H           7.27725        -1.00011        -2.72421
H           7.02636        -4.31808        -3.56834
H           7.25260        -1.42867        -5.46891
H           5.80280        -2.47968        -5.34916
H           7.28306        -3.09125        -6.13458
H           9.36461        -2.51894        -5.07645
H          11.83780        -3.36581        -2.83224
H          11.78117        -2.07553        -4.07286
H          14.12676        -4.93193        -5.66212
H          14.02355        -4.49156        -3.95016
H          14.07248        -3.22114        -5.21013

