%chk=CtCCSCCqCrqOCOCrCqCrC.chk
%NProcShared=20
# opt freq b3lyp/6-31g(2df,p)

Title Card Required 

0  1
C           1.01557        -0.08156        -0.05573
C           2.31943        -0.08156        -0.05573
C           3.83943        -0.08156        -0.05573
S           4.37811        -1.00954        -1.50236
C           6.11960        -0.42905        -1.69951
C           6.67516        -0.61325        -3.16643
C           6.21802        -1.96010        -3.78025
O           6.26258         0.49797        -4.02938
C           4.85173         0.67738        -4.11244
O           4.40678         1.67234        -5.03240
C           2.97457         1.70507        -4.96190
C           8.25507        -0.56339        -3.15910
C           8.91163        -1.63761        -2.27643
C           8.85246        -0.67534        -4.57636
H          -0.05008        -0.08569        -0.05837
H           4.18179        -0.63962         0.82142
H           4.22909         0.93849        -0.00559
H           6.66658        -1.04923        -0.98892
H           6.22106         0.61786        -1.38771
H           5.13329        -2.06183        -3.84889
H           6.56849        -2.80760        -3.18470
H           6.56020        -2.07117        -4.81104
H           4.51037         1.03224        -3.13320
H           4.38328        -0.25367        -4.40858
H           2.59231         2.51222        -5.58522
H           2.64263         1.87487        -3.92831
H           2.56013         0.75297        -5.31491
H           8.56241         0.41948        -2.77462
H           8.64158        -2.64789        -2.59744
H           8.63807        -1.52920        -1.22444
H          10.00349        -1.56748        -2.32166
H           8.61983        -1.63850        -5.04134
H           9.94465        -0.59832        -4.54778
H           8.48278         0.11851        -5.23237

