%chk=NC1CdCCdCCdNC2dNCdC2CdCdNN1.chk
%NProcShared=20
# opt freq b3lyp/6-31g(2df,p)

Title Card Required 

0  1
N           1.12109        -0.28630         0.64202
C           2.54262        -0.64136         1.15734
C           3.16122        -1.78311         0.54141
C           4.51399        -1.63242         0.55185
C           5.23612        -2.50717         1.40618
C           6.48605        -2.32076         1.83108
C           6.98605        -3.32395         2.71297
N           8.15408        -3.51729         3.13941
C           8.30072        -4.54347         3.96423
N           9.44507        -5.01090         4.19969
C           8.83967        -5.84498         5.10844
C           7.44847        -5.38362         4.94739
C           5.67157        -4.64099         4.67181
C           4.62743        -3.51335         4.13083
N           3.62568        -2.88131         3.55311
N           3.09720        -1.28856         2.83170
H           0.82358        -0.95169        -0.08903
H           1.11315         0.54910        -0.01732
H           3.07979         0.02248         0.38221
H           2.48529        -2.55714         0.88590
H           5.00751        -0.65090         0.46164
H           4.56241        -3.27405         1.78046
H           7.17741        -1.57903         1.52415
H           6.23569        -4.00895         2.95930
H           9.65439        -6.51973         5.53732
H           5.61185        -5.48481         3.90387
H           3.87574        -0.63791         2.92276

