%chk=NC1dNN2CdCCdCC2dCSCdCNCC1dO.chk
%NProcShared=20
# opt freq b3lyp/6-31g(2df,p)

Title Card Required 

0  1
N           0.55901        -0.27408        -0.12763
C           1.71762         0.35542        -0.53325
N           2.72624        -0.09707         0.31620
N           4.22538        -0.04722         0.62093
C           4.93112        -0.96587         1.54304
C           6.28796        -1.03266         1.71539
C           7.13751        -0.14498         0.95336
C           6.55173         0.75076         0.13932
C           5.07318         0.90460         0.03246
C           4.63547         2.06502        -0.48071
S           3.36392         2.92171         0.33867
C           2.64449         3.64821        -1.02088
C           1.30326         3.79550        -0.99786
N           0.56259         3.88706        -2.12452
C           0.04700         2.51469        -2.37810
C           1.35941         1.26896        -2.06825
O           1.96983         0.92856        -3.07181
H           0.43642        -0.24668         0.87813
H          -0.25851        -0.18238        -0.70368
H           4.32437        -1.63946         2.14468
H           6.82197        -1.72249         2.38354
H           8.22532        -0.18813         1.06987
H           7.18686         1.46896        -0.36650
H           5.28430         2.64138        -1.11449
H           3.16126         3.76755        -1.96363
H           0.70781         3.35415        -0.19739
H           1.03873         4.33509        -2.91982
H          -0.29902         2.55889        -3.43490
H          -0.88415         2.48730        -1.79097

