%chk=NCCc1cccc2cq[nH][nH]c1dOrdCCdCCdCCd2.chk
%NProcShared=20
# opt freq b3lyp/6-31g(2df,p)

Title Card Required 

0  1
N           0.98906        -0.05089        -0.07410
C           2.47925        -0.03083        -0.11874
C           2.98332         0.87959        -1.37818
C           4.39167         1.17977        -1.78789
C           5.36441         1.84249        -2.54737
C           7.36599         1.46752        -2.07271
C           8.49780         1.85175        -2.65396
C           9.89339         2.29541        -3.31599
C           9.25850         3.14410        -4.36588
N           7.99418         3.24663        -4.66784
N           6.33040         2.67113        -3.95090
C           5.62608         1.52318        -2.47377
O           5.85526         0.65934        -1.21924
C          10.37174         3.32567        -5.02833
C          11.26320         4.08036        -5.73323
C          12.65675         3.39193        -5.08846
C          13.45139         4.20170        -5.84021
C          12.85688         3.45765        -4.48858
C          11.57971         2.34489        -3.31804
H           0.64923        -0.63502         0.69523
H           0.62937        -0.47011        -0.93140
H           2.81541        -1.07498        -0.18491
H           2.81682         0.35904         0.85147
H           2.53054         1.83907        -1.15398
H           2.53042         0.36915        -2.21891
H           4.42777         2.38107        -3.34450
H           7.55001         0.79072        -1.21541
H           7.62288         2.15336        -3.10371
H           8.29941         3.89386        -5.54621
H           6.01336         3.30838        -4.73214
H          11.02448         3.06401        -4.61390
H          10.99500         4.61360        -6.53279
H          13.88635         2.64444        -4.08906
H          13.15127         4.79851        -6.80816
H          14.33476         3.54866        -4.96327
H          11.18268         1.65422        -2.39295

