%chk=NCCNCC1NdC2CdCCdCCdC21.chk
%NProcShared=20
# opt freq b3lyp/6-31g(2df,p)

Title Card Required 

0  1
N           0.94408         0.03575        -0.04469
C           2.41345         0.05285        -0.04194
C           3.03018         1.40767         0.43034
N           4.52969         1.35139         0.41377
C           5.19744         2.61560         0.88534
C           6.93697         2.59359         1.08851
N           6.70726         4.11416         1.15676
C           7.85970         4.46082         1.48773
C           8.43512         5.72976         1.88803
C           9.72290         6.04703         1.99727
C          10.87182         5.23065         1.70817
C          10.90345         3.96233         1.26135
C           9.79376         3.00654         0.97275
C           8.45617         3.24006         1.12231
H           0.61614        -0.87159        -0.38120
H           0.58620         0.72380        -0.70540
H           2.75742        -0.18057        -1.05647
H           2.75811        -0.75375         0.61471
H           2.65113         1.61947         1.43874
H           2.65076         2.19770        -0.23509
H           4.79504         1.21070        -0.56138
H           4.78257         2.87317         1.87013
H           4.89418         3.41036         0.17052
H           6.95578         1.89103         0.24062
H           7.67803         6.46129         2.13033
H           9.95308         7.05740         2.34094
H          11.82040         5.75559         1.88825
H          11.92040         3.56845         1.13334
H          10.18497         2.03679         0.66667

