%chk=NdCd[SH]C1dc2ccccccoc2dCdC1.chk
%NProcShared=20
# opt freq b3lyp/6-31g(2df,p)

Title Card Required 

0  1
N           1.02646        -0.02995        -0.04280
C           2.20140        -0.04077        -0.06432
S           3.78359        -0.01733        -0.10659
C           4.48259        -1.68425         0.14209
C           5.97353        -2.07537         0.23066
C           6.11879        -3.46595         0.39880
C           7.30248        -3.87408         0.34769
C           7.89550        -5.04060         0.50319
C           9.22776        -4.75964         0.28811
C           9.64984        -5.94600         0.86910
C          10.00493        -4.45387         1.00611
O           9.08542        -2.64147         0.59515
C           7.46700        -1.27585         0.22264
C           6.30251         0.42594        -0.13780
C           3.49485        -2.82954         0.29399
H           0.52711         0.59601        -0.69753
H           4.25605         0.72561         0.90441
H           5.41939        -4.20130         0.50077
H           7.76334        -3.09424        -0.12397
H           7.35902        -5.95777         0.72896
H          10.26491        -3.57428        -0.10566
H           9.50541        -7.13957         0.79143
H          11.35014        -5.18722         0.70377
H           2.82422        -3.60713         0.39712

