%chk=NN1CdCCdCNdC2NdCCdNN2CdC1.chk
%NProcShared=20
# opt freq b3lyp/6-31g(2df,p)

Title Card Required 

0  1
N           1.94634         0.27655         0.31738
N           3.71912         1.01893         0.55610
C           3.17989         1.61153        -0.58679
C           4.36057         1.63911        -1.14146
C           5.39287         2.59868        -1.32194
C           6.77198         1.87013        -1.16526
N           7.68506         2.71234        -0.90447
C           8.72271         3.09518        -0.40667
N           9.65298         2.22205        -0.22700
C          10.84699         2.57426        -0.29925
C          11.10338         3.99485        -0.43923
N           9.94876         4.80702        -0.39784
N           8.17629         4.25091        -0.05035
C           6.53735         3.48923         0.58520
C           5.29029         2.05005         0.90079
H           1.12083         0.88361        -0.09251
H           1.22023        -0.32045         0.88001
H           2.47529         2.36784        -0.26075
H           5.07315         0.72678        -0.88836
H           4.82052         3.57371        -0.65319
H           7.20624         1.18000        -0.27977
H          11.49064         1.71318        -0.20743
H          12.35105         4.02617        -0.49878
H           6.68325         4.53910        -0.28863
H           5.09320         0.68538         0.76864

