%chk=OdC1CdCNdCCdCqOrNdNNdNCdC1.chk
%NProcShared=20
# opt freq b3lyp/6-31g(2df,p)

Title Card Required 

0  1
O           3.85660        -0.52092        -0.13526
C           5.20315        -1.54493        -0.27190
C           3.38232        -1.75496        -0.13957
C           4.89108        -1.84370        -0.30795
N           4.89865        -3.35052        -0.15898
C           6.02396        -3.17645         0.52280
C           6.77179        -4.27790        -0.20910
C           8.00543        -4.03383        -1.02116
O           9.09994        -2.42210        -0.91316
N           8.75344        -5.10874        -0.77411
N          10.03293        -4.60670        -1.14395
N          10.29144        -5.90868        -0.51857
N          10.43444        -4.45439         0.04011
C           8.82094        -3.37386         0.54081
C           7.38693        -2.33722        -0.29382
H           2.50645        -2.45833        -0.17437
H           5.40290        -0.20679        -0.03944
H           6.78052        -1.71432         0.88578
H           6.52474        -5.27632        -0.25155
H           8.83681        -1.61545        -0.14033
H           9.89287        -4.60398         0.73967
H           6.82157        -1.01670        -0.44940

