%chk=OdCCSc1nnccc1-c1ccns1.chk
%NProcShared=20
# opt freq b3lyp/6-31g(2df,p)

Title Card Required 

0  1
O           0.98462        -0.12271        -0.03912
C           2.20956        -0.16158        -0.03217
C           3.02421         0.61097         0.96336
S           4.79989         0.54120         0.61879
C           5.43903         1.73045         1.79829
N           6.27771         1.18239         2.71523
N           6.90943         1.95897         3.65875
C           6.70479         3.28381         3.66481
C           5.88655         3.89654         2.73869
C           5.22337         3.11844         1.77879
C           4.40944         3.82980         0.79108
C           4.77551         4.65469        -0.25901
C           3.62728         5.02541        -1.02063
N           2.45200         4.59513        -0.57366
S           2.70143         4.00352         0.95622
H           2.75332        -0.71962        -0.81181
H           2.77239         0.33015         1.98879
H           2.69251         1.61340         0.78408
H           7.21770         3.84265         4.44014
H           5.76763         4.97524         2.76137
H           5.78994         4.95233        -0.48400
H           3.61769         5.62903        -1.91849

