%chk=OOc1cc2cccccccccnc1-2.chk
%NProcShared=20
# opt freq b3lyp/6-31g(2df,p)

Title Card Required 

0  1
O           2.42971         0.50282        -0.79169
O           4.21865         1.33093        -1.90455
C           5.71997         2.11456        -2.95762
C           5.27652         1.06887        -1.55237
C           6.44110         1.75205        -2.47047
C           7.07651         1.10247        -1.59753
C           7.50152         1.81059        -2.54914
C           8.87751         1.85968        -2.61511
C           9.44819         2.50971        -3.48865
C          10.76820         2.40832        -3.35240
C          11.37852         3.02272        -4.17806
C          12.65488         3.44897        -4.75087
C          13.33787         4.40556        -6.03638
C          11.83397         3.87784        -5.32720
N           9.83021         3.47233        -4.78227
C           7.61715         2.78179        -3.85428
H           1.41368        -0.18458         0.13206
H           5.02892         0.19388        -0.37653
H           7.27410         0.56511        -0.87541
H           6.43283         2.71099        -3.75914
H           9.44920         1.40838        -2.00863
H           8.57105         3.37288        -4.64861
H          11.61791         2.13662        -2.98727
H          10.65705         4.02405        -5.52369
H          13.61142         3.02100        -4.17574
H          13.15712         5.02398        -6.86744
H          13.74005         3.90148        -5.35897

