%chk=[CH]NdCN1CqdOrC1C.chk
%NProcShared=20
# opt freq b3lyp/6-31g(2df,p)

Title Card Required 

0  1
C           1.40164        -0.01963        -0.25692
N           2.72779         0.18492        -0.22711
C           3.26621         0.80329         0.76188
N           4.63793         0.87847         0.86217
C           5.72719         1.14311         1.58136
O           6.42926         0.67810         2.46409
C           5.78846         0.96266         0.09811
C           6.24287         2.17707        -0.63585
H           0.39608        -0.33942        -0.44217
H           2.73731         1.27803         1.61078
H           6.12638         0.03167        -0.34056
H           5.97394         3.09286        -0.09511
H           5.82200         2.22589        -1.64059
H           7.33677         2.16703        -0.71834

