%chk=CC1[SH]qNNCqSrCdOrC1qOrCdCCdO.chk
%NProcShared=20
# opt freq b3lyp/6-31g(2df,p)

Title Card Required 

0  1
C           1.01301         0.11094        -0.14820
C           2.49911         0.20692        -0.11329
S           3.40288        -0.79415        -1.29846
N           2.36223        -1.53623        -2.38063
N           2.53557        -2.97644        -2.24378
C           1.79453        -3.69303        -3.29786
S           2.42320        -3.27535        -4.96039
C           1.94671        -5.19449        -3.06363
O           1.41823        -6.06540        -3.75295
C           3.32040         0.97817        -1.13919
O           2.68293         1.49018        -2.32178
C           4.53746         1.65835        -0.67774
C           4.60901         2.99778        -0.67041
C           5.83521         3.74835        -0.38722
O           5.83680         4.97867        -0.42209
H           0.65470        -0.51278         0.68111
H           0.59064        -0.30059        -1.06696
H           0.57433         1.10463        -0.00167
H           2.85220         0.15756         0.91118
H           4.39846        -1.49245        -0.73101
H           2.63276        -1.24986        -3.33422
H           2.14857        -3.24901        -1.33405
H           0.72766        -3.45820        -3.22550
H           3.69476        -3.64221        -4.74678
H           2.56021        -5.49318        -2.19461
H           1.74504         1.26453        -2.39423
H           5.40868         1.05201        -0.43646
H           3.74788         3.59178        -0.95686
H           6.73881         3.16388        -0.16636

