%chk=CC1CCCc2ccccc2CCCqCrCCC1.chk
%NProcShared=20
# opt freq b3lyp/6-31g(2df,p)

Title Card Required 

0  1
C           1.03997         0.12889         0.06427
C           2.57022         0.06012         0.11703
C           3.19852         1.41979         0.61790
C           4.73799         1.67231         0.41954
C           5.50495         2.03209         1.74185
C           7.04483         1.90234         1.79564
C           7.85453         3.01929         2.05276
C           9.25356         2.89355         2.12030
C           9.88178         1.66618         1.94826
C           9.10594         0.53775         1.74833
C           7.71614         0.65650         1.69816
C           6.89745        -0.56220         1.50868
C           7.45755        -1.94905         1.35532
C           6.35529        -3.02463         1.14423
C           6.84164        -4.28614         1.84155
C           4.90942        -2.68910         1.61489
C           4.28534        -1.61938         0.73291
C           2.88305        -1.17209         1.01341
H           0.68784         0.92100        -0.59929
H           0.62415         0.28469         1.06492
H           0.63579        -0.82002        -0.31464
H           2.92299        -0.12471        -0.90777
H           2.93493         1.54995         1.67284
H           2.68940         2.22740         0.07436
H           4.87511         2.51126        -0.27519
H           5.17902         0.84873        -0.13566
H           5.10220         1.43542         2.57148
H           5.23740         3.06924         1.98638
H           7.41109         3.99626         2.21521
H           9.86999         3.77046         2.30962
H          10.96073         1.56495         1.97592
H           9.58895        -0.42628         1.62937
H           6.47528        -0.37593         0.52803
H           6.19457        -0.56584         2.35037
H           8.08621        -2.18433         2.21984
H           8.11671        -1.96201         0.47618
H           6.30247        -3.23026         0.06528
H           6.91242        -4.11303         2.92105
H           7.83572        -4.55908         1.47252
H           6.16215        -5.12176         1.66414
H           4.92259        -2.35449         2.65985
H           4.28087        -3.58442         1.57683
H           4.44094        -1.83174        -0.33049
H           4.78120        -0.70931         0.96545
H           2.77706        -0.88889         2.06787
H           2.20359        -2.00841         0.82177

