%chk=CC1CCCNqCCCCdOrC1.chk
%NProcShared=20
# opt freq b3lyp/6-31g(2df,p)

Title Card Required 

0  1
C           0.91433        -0.04768         0.10589
C           2.44742        -0.08854         0.05469
C           2.96224        -1.48281        -0.30473
C           2.55380        -1.84072        -1.72872
C           3.05354        -0.77726        -2.70647
N           2.58487         0.57462        -2.34457
C           3.08979         1.54788        -3.32172
C           2.56674         2.96157        -3.05899
C           3.12430         3.94290        -4.07549
C           2.64173         5.33494        -3.77596
O           2.97285         6.30874        -4.45034
C           2.98002         0.92199        -0.96731
H           0.53360        -0.79061         0.81221
H           0.45862        -0.25097        -0.86887
H           0.56246         0.94086         0.41672
H           2.82891         0.18573         1.04645
H           2.58766        -2.22906         0.40240
H           4.05862        -1.49294        -0.23343
H           1.46325        -1.92745        -1.80137
H           2.95854        -2.82108        -1.99786
H           2.69154        -1.04170        -3.70732
H           4.15068        -0.80627        -2.73602
H           2.76255         1.24693        -4.32606
H           4.18724         1.55043        -3.32753
H           2.86735         3.31533        -2.06729
H           1.46922         2.96702        -3.07886
H           2.80764         3.66872        -5.08541
H           4.21844         3.94535        -4.02320
H           1.97340         5.45604        -2.90662
H           2.57008         1.89436        -0.67603
H           4.07303         0.99741        -0.89137

