%chk=CC1CdCCCCC2CCdC1NqCrC2.chk
%NProcShared=20
# opt freq b3lyp/6-31g(2df,p)

Title Card Required 

0  1
C           0.88695        -0.07590        -0.21216
C           2.37122         0.14419        -0.45317
C           2.62208         1.59486         0.47441
C           3.57601         2.47142         0.09357
C           4.62780         3.08423         1.02918
C           6.16353         2.82040         0.79353
C           6.83836         1.45035         1.18627
C           6.29477         0.06900         0.70985
C           5.05402         0.21046        -0.09266
C           3.64099        -0.37105         0.81354
C           3.25235        -1.29961        -0.06093
N           4.62223        -1.91283         0.61245
C           5.42553        -2.73422        -0.30474
C           5.62373        -0.87578         1.65986
H           0.35798         0.78416        -0.63108
H           0.65708        -0.10701         0.86379
H           0.53049        -0.99909        -0.66457
H           2.60020         0.37198        -1.50260
H           2.40887         1.47885         1.54983
H           3.83225         2.42631        -0.96436
H           4.43327         2.83273         2.07688
H           4.47933         4.15831         0.89629
H           6.69396         3.57985         1.39627
H           6.43441         3.07882        -0.24145
H           7.00690         1.43102         2.26654
H           7.85662         1.53013         0.75863
H           7.09570        -0.48174         0.20620
H           5.11077        -0.29147        -1.07795
H           5.06996         1.18729        -0.49615
H           3.37645        -0.91058         1.77632
H           4.75966        -3.41089        -0.83930
H           6.17105        -3.28096         0.26853
H           5.94123        -2.13017        -1.06388
H           6.17407        -1.42166         2.41054
H           5.00912        -0.16960         2.29359

