%chk=CC1CCCqdOrCCCqOrCC1.chk
%NProcShared=20
# opt freq b3lyp/6-31g(2df,p)

Title Card Required 

0  1
C           1.03907        -0.07172        -0.45219
C           2.52200        -0.09747        -0.09994
C           3.04020         1.34804         0.09741
C           2.68508         2.05142         1.41575
C           1.20257         2.09241         1.74097
O           0.41337         2.65992         0.99489
C           0.73284         1.47781         3.05921
C           1.14086         0.02834         3.36475
C           0.60698        -1.02231         2.38092
O          -0.32614        -1.90309         3.01093
C           1.75009        -1.83557         1.72543
C           2.89851        -1.03194         1.07582
H           0.81011         0.50742        -1.34572
H           0.49350         0.44862         0.31463
H           0.60686        -1.07053        -0.54610
H           3.02627        -0.49685        -0.99228
H           2.67878         1.95837        -0.74073
H           4.13524         1.33866         0.01157
H           3.02490         3.09390         1.37115
H           3.22613         1.60783         2.25291
H          -0.35890         1.56320         3.09947
H           1.14078         2.12584         3.84249
H           0.79608        -0.22075         4.37321
H           2.23069        -0.01284         3.41779
H          -0.04925        -0.55469         1.66121
H           0.13225        -2.45873         3.65615
H           1.34002        -2.53229         0.98316
H           2.18666        -2.48672         2.49444
H           3.64465        -1.75208         0.70574
H           3.46616        -0.49283         1.84185

