%chk=CC1dCNCCqOCCCqCrCNrC1.chk
%NProcShared=20
# opt freq b3lyp/6-31g(2df,p)

Title Card Required 

0  1
C           0.93936        -0.05781        -0.03795
C           2.42880        -0.01969        -0.05852
C           3.10605         1.13618        -0.09885
N           4.44626         1.21282        -0.26334
C           5.32886         0.07936        -0.17686
C           4.66289        -1.32030        -0.08686
O           5.10484        -2.05318         1.08207
C           6.51770        -2.13249         1.13305
C           6.97991        -2.78999         2.40744
C           8.51279        -2.70043         2.48715
C           9.01447        -1.24154         2.52484
C           8.98609        -3.46453         3.72256
N          10.44002        -3.46103         3.78791
C           3.12677        -1.34851        -0.08543
H           0.50857         0.94765        -0.04174
H           0.58308        -0.58578         0.85037
H           0.57857        -0.58075        -0.93018
H           2.61329         2.10134        -0.05749
H           4.87880         2.11317        -0.06582
H           5.94528         0.29989         0.69353
H           5.98876         0.08522        -1.05100
H           4.99393        -1.91519        -0.95047
H           6.92143        -1.13155         1.16497
H           6.91500        -2.62806         0.24160
H           6.62905        -3.82850         2.42516
H           6.51633        -2.29465         3.27113
H           8.92475        -3.17751         1.58638
H           8.59382        -0.70946         3.38457
H           8.75867        -0.68001         1.62165
H          10.10493        -1.19409         2.58653
H           8.62380        -4.49778         3.68567
H           8.57649        -2.99993         4.62644
H          10.82133        -3.91391         2.95889
H          10.74973        -3.99582         4.59473
H           2.77032        -1.94621         0.76573
H           2.79829        -1.88211        -0.98715

