%chk=CC1dCNdCCdCCdCqNrC1qNrCt[SH].chk
%NProcShared=20
# opt freq b3lyp/6-31g(2df,p)

Title Card Required 

0  1
C           1.08234        -0.06709        -0.03253
C           2.55986        -0.07066        -0.02995
C           3.13091         1.08912        -0.27393
N           4.33945         1.29502        -0.31120
C           5.01334         2.28947        -0.51690
C           6.28936         2.06048        -0.47219
C           7.18142         3.36913        -0.72463
C           7.13286         1.61134        -0.41343
C           5.62129         0.12060        -0.11793
N           7.68821         1.41000        -0.27620
C           3.34725        -1.35560         0.23210
N           4.14962        -1.22744         1.50480
C           2.35951        -2.48724         0.46481
S           1.35057        -3.64316         0.70250
H           0.69771         0.93171        -0.23822
H           0.70324        -0.38367         0.93621
H           0.70340        -0.74031        -0.79825
H           2.70140         2.00181        -0.45812
H           4.75630         3.22431        -0.70970
H           7.04273         0.34523        -0.11018
H           6.97672         4.38289        -0.96070
H           8.96538         1.50743        -0.36679
H           8.64258         2.75397        -0.60064
H           8.92535         2.55489        -0.60824
H           4.82110        -0.46028         1.29896
H           4.71174        -2.05943         1.59628
H           1.56881        -4.16195         1.92925

