%chk=CC1dCCdCC2qCNC2dOrNqCrC1.chk
%NProcShared=20
# opt freq b3lyp/6-31g(2df,p)

Title Card Required 

0  1
C           1.06873         0.23701         0.04137
C           2.56827         0.14248         0.13356
C           3.02550        -1.06624         0.50493
C           4.30868        -1.58169         0.17731
C           5.40806        -0.86677        -0.02177
C           5.65291         0.50423         0.49418
C           6.64401         0.28474         1.68923
N           7.48037         1.33751         1.09673
C           6.87873         1.16136        -0.13386
O           7.06636         1.61427        -1.26126
N           4.55190         1.55648         0.73305
C           5.08319         2.96851         0.56886
C           3.42927         1.35633        -0.23347
H           0.60108        -0.71483         0.33518
H           0.74974         0.40910        -0.99220
H           0.66979         1.00550         0.70148
H           2.33504        -1.83050         0.85075
H           4.34686        -2.65522        -0.00757
H           6.29292        -1.40528        -0.35934
H           7.29139        -0.61325         1.63612
H           6.24625         0.30766         2.70476
H           7.47605         2.25436         1.53183
H           5.83695         3.21064         1.32955
H           4.33824         3.76191         0.70702
H           5.53938         3.17906        -0.41081
H           3.77905         1.32274        -1.27676
H           2.77164         2.24168        -0.19113

