%chk=CC1dCCdCC1CdNOCdNN1CN1.chk
%NProcShared=20
# opt freq b3lyp/6-31g(2df,p)

Title Card Required 

0  1
C           0.89679         0.14851         0.05406
C           2.37727         0.10318         0.00224
C           3.24127         1.13802         0.01119
C           4.58915         0.63430         0.00316
C           4.56134        -0.71754        -0.02020
C           3.13098        -1.20957        -0.03657
C           2.77509        -2.00062        -1.31632
N           1.58273        -2.48930        -1.50303
O           1.43391        -3.08769        -2.79765
C           0.15755        -3.59591        -2.87822
N          -0.32715        -4.32562        -3.84505
N          -1.49909        -4.83474        -3.40262
C          -2.10792        -5.78524        -4.32206
N          -2.60615        -4.41921        -4.13883
H           0.52004         1.17373         0.09844
H           0.53576        -0.39311         0.93397
H           0.46906        -0.31500        -0.83838
H           2.98831         2.18806         0.04445
H           5.46747         1.25804         0.04124
H           5.43621        -1.34284         0.01499
H           2.92611        -1.80371         0.86218
H           3.57158        -2.12075        -2.06873
H          -0.43229        -3.34282        -1.97924
H          -2.60138        -6.60307        -3.80675
H          -1.91563        -5.95827        -5.37335
H          -3.41290        -4.40888        -3.51666

