%chk=CC1dCNCCCOCqCOrCNdSq[N]OrO1.chk
%NProcShared=20
# opt freq b3lyp/6-31g(2df,p)

Title Card Required 

0  2
C           3.08742        -0.40497         0.26845
C           5.34940        -0.89807         0.60707
C           3.62387        -1.16372         0.78079
N           5.04775        -1.13695         0.76116
C           5.10698        -2.46061         1.66055
C           6.42632        -2.40453         1.63695
C           6.99202        -3.40289         2.33550
O           8.14533        -3.03238         2.05875
C           9.30658        -3.95086         2.67351
C           9.19855        -5.27726         1.91470
O           7.86321        -5.59970         2.11238
C          10.82272        -2.75612         1.82949
N          10.51223        -3.86327         2.73739
S           9.81865        -2.33586         1.60826
N          11.68756        -3.95253         2.68069
O          13.51543        -4.86999         3.30155
O           7.62518        -1.42969         0.97313
H           1.50373        -0.84915         0.56715
H           1.69111        -0.26943        -0.62275
H           1.69011         0.47116         0.46665
H           2.73318        -1.89168         1.27429
H           5.63813         0.10686        -0.08724
H           4.94306        -3.20063         0.95288
H           4.94152        -2.07521         2.60941
H           6.78374        -1.06089         2.23605
H           6.78711        -2.47420         0.15882
H           7.18392        -4.01573         1.50211
H           7.24241        -2.96577         3.25616
H           9.23342        -3.70876         3.80513
H           9.84142        -5.96005         2.45254
H           9.54464        -5.13393         0.87905
H           7.69612        -5.29870         3.03184
H          11.53363        -2.27922         2.81890
H          11.52884        -3.48660         1.06755
H          14.50328        -5.75873         3.90224

