%chk=CCC1CNCqCNrC2qCC2NrNdC1N.chk
%NProcShared=20
# opt freq b3lyp/6-31g(2df,p)

Title Card Required 

0  1
C           0.93381        -0.07619         0.07141
C           2.45076        -0.06156         0.06456
C           2.95198        -0.98499        -1.05100
C           3.03619        -2.41408        -0.48154
N           2.79879        -3.45635        -1.48558
C           3.66277        -3.32004        -2.67662
C           3.76396        -4.71828        -3.38046
N           4.51613        -4.73202        -4.64062
C           5.00730        -2.69586        -2.31240
C           5.92465        -3.41337        -1.48150
C           6.34505        -3.29273        -2.95362
N           6.22828        -2.63180        -4.31823
N           5.14783        -1.26596        -2.18970
C           4.24831        -0.48492        -1.66143
N           4.53209         0.83700        -1.76990
H           0.55762         0.60010         0.83964
H           0.54722        -1.08126         0.26156
H           0.55278         0.25607        -0.90091
H           2.84995        -0.38173         1.03529
H           2.76348         0.97534        -0.05389
H           2.23684        -0.96590        -1.88462
H           2.28777        -2.57452         0.30209
H           3.98926        -2.57506         0.03910
H           1.83188        -3.39082        -1.80201
H           3.17716        -2.63583        -3.38554
H           2.75368        -5.07528        -3.60510
H           4.21672        -5.44729        -2.69661
H           4.07179        -4.14071        -5.33600
H           4.64697        -5.67101        -5.00418
H           5.49232        -4.33700        -1.08228
H           6.35471        -2.85513        -0.65862
H           6.70815        -4.29312        -3.15452
H           5.32957        -2.12978        -4.37915
H           6.02176        -3.41452        -4.95957
H           5.44724         1.07113        -2.13930
H           3.99812         1.58030        -1.34557

