%chk=CCC1dCCdCCdCCdCCdC2CdCCdCN21.chk
%NProcShared=20
# opt freq b3lyp/6-31g(2df,p)

Title Card Required 

0  1
C           2.33317        -0.76688         0.50650
C           4.52192        -2.04181         1.23410
C           6.46865        -3.83990         2.41825
C           5.59039        -2.30760         1.36941
C           5.05713        -3.38766         1.94380
C           6.64013        -2.75278         1.47154
C           7.43042        -4.72077         2.49184
C           8.37886        -3.98739         2.21248
C           7.78281        -4.96543         2.41726
C           9.81469        -5.26277         2.74929
C           9.24661        -6.99195         3.83404
C          10.50847        -6.36142         3.53603
C          12.56890        -6.26190         3.46316
C          13.84203        -6.62199         3.63079
C          12.79962        -7.43110         4.10777
C          10.78213        -6.69078         3.78701
N           8.52440        -5.42079         3.35567
H           1.09652         0.51896        -0.19222
H           0.80079        -0.07419         1.06236
H           0.80176        -0.85564        -0.38597
H           3.62455        -0.43163         0.89704
H           3.62874        -0.91432         0.01358
H           5.17770        -0.85118         0.54018
H           4.01468        -3.44334         1.91718
H           7.11742        -1.98497         1.15209
H           5.93906        -5.07705         2.81353
H           8.87548        -3.44229         1.96819
H           7.55335        -6.34618         3.47541
H          10.75108        -4.90985         2.73982
H           9.61542        -7.90738         4.34569
H          12.21833        -5.49092         3.04802
H          14.51839        -5.90833         3.28682
H          14.65776        -7.84748         4.33186
H          12.00888        -8.01620         4.43088

