%chk=CCC12CCCqOrCqS1rCqCrC2.chk
%NProcShared=20
# opt freq b3lyp/6-31g(2df,p)

Title Card Required 

0  1
C           0.94301         0.08903         0.14397
C           2.47543        -0.07028         0.08491
C           2.84046        -1.45504        -0.47972
C           2.68843        -2.55769         0.66535
C           3.14265        -4.01571         0.34091
C           2.49665        -4.28712        -0.99844
O           2.49971        -5.70881        -1.22684
C           3.43158        -3.57370        -1.99512
S           4.44826        -2.03752        -0.93511
C           3.10903        -2.46907        -2.94330
C           4.62238        -2.33942        -3.56688
C           2.29602        -1.53663        -1.97075
H           0.64936         1.02432         0.62936
H           0.47950        -0.73586         0.69453
H           0.50131         0.09626        -0.85947
H           2.88218         0.06806         1.09228
H           2.88158         0.73655        -0.53727
H           1.65551        -2.61879         1.01193
H           3.28774        -2.22927         1.53288
H           2.96427        -4.73085         1.14170
H           4.24053        -4.13042         0.22010
H           1.45469        -3.97010        -1.00103
H           3.38119        -6.01769        -1.24565
H           3.83113        -4.32649        -2.68439
H           2.47170        -2.66361        -3.81030
H           5.39142        -2.86656        -2.94352
H           5.01177        -1.33120        -3.69821
H           4.73061        -2.96828        -4.45580
H           1.26368        -1.92504        -1.92583
H           2.19630        -0.54184        -2.43065

