%chk=CCCCqCNrNqCNCCdCCdOrCOCqNrCOCOC.chk
%NProcShared=20
# opt freq b3lyp/6-31g(2df,p)

Title Card Required 

0  1
C           0.98117        -0.03593         0.03524
C           2.48981        -0.16255         0.08439
C           3.08095         0.46705        -1.15994
C           4.61854         0.61353        -1.26547
C           5.21704        -0.84331        -1.19045
N           4.89033        -1.54471         0.04036
N           5.06675         1.36512        -2.50446
C           4.64984         2.77657        -2.61665
N           3.21782         2.89238        -2.81842
C           2.70448         4.24531        -2.77609
C           1.19798         4.17343        -2.70537
C           0.46376         5.29123        -2.70509
C          -1.01218         5.28463        -2.67877
O          -1.63844         6.32837        -2.70741
C           6.54174         1.35882        -2.53539
O           7.09634         1.89432        -3.72840
C           8.52288         1.88014        -3.70132
N           9.04933         0.51929        -3.68139
C           9.01161         2.59353        -4.97023
O          10.43619         2.65368        -4.97591
C          10.90549         3.23183        -6.17638
O          12.32465         3.23268        -6.18059
C          12.81208         3.84261        -7.36373
H           0.55894        -0.48848         0.93217
H           0.60009        -0.55931        -0.84757
H           0.66373         1.01053        -0.02151
H           2.69999        -1.22292         0.16420
H           2.88686         0.36921         0.95894
H           2.63386         1.42750        -0.99991
H           2.67859         0.02847        -2.08279
H           4.97699         1.17550        -0.39175
H           6.30600        -0.85093        -1.21827
H           4.85420        -1.41601        -2.05320
H           5.18073        -1.02903         0.86522
H           5.23570        -2.49641         0.06235
H           5.11024         3.23337        -3.49949
H           4.97797         3.33197        -1.73016
H           2.82516         2.55414        -1.97285
H           3.02851         4.79120        -3.66128
H           3.06050         4.73910        -1.86318
H           0.71327         3.19615        -2.65213
H           0.92760         6.26867        -2.74350
H          -1.50427         4.29560        -2.64051
H           6.87496         0.32842        -2.52793
H           6.95698         1.87811        -1.66092
H           8.88969         2.43192        -2.82633
H           8.64024         0.00886        -4.45926
H           8.79553         0.03889        -2.82780
H           8.60237         3.61045        -5.00436
H           8.64397         2.06312        -5.85952
H          10.54073         4.26307        -6.23334
H          10.54054         2.65331        -7.03345
H          13.90361         3.82820        -7.33943
H          12.47268         4.88153        -7.41762
H          12.46948         3.28999        -8.24407

