%chk=CCCC1CdCqCOCrCCCCNO1.chk
%NProcShared=20
# opt freq b3lyp/6-31g(2df,p)

Title Card Required 

0  1
C           0.90749        -0.04632        -0.11241
C           2.41858        -0.02472        -0.14157
C           2.93517         1.23601         0.53608
C           4.45335         1.25069         0.56826
C           4.98204         2.59012         1.01867
C           5.78422         2.73831         2.08358
C           6.45068         4.06491         2.34226
O           7.26818         3.98085         3.50441
C           7.87160         5.22320         3.81203
C           6.13447         1.56835         2.98038
C           7.36778         0.80001         2.49796
C           7.16475        -0.09573         1.26067
C           7.43954         0.59796        -0.08834
N           6.40121         1.32510        -0.83229
O           5.07441         0.75006        -0.63698
H           0.53499        -0.92205        -0.64833
H           0.50726         0.85306        -0.59023
H           0.54158        -0.08265         0.91836
H           2.76175        -0.05545        -1.18111
H           2.81565        -0.91632         0.36060
H           2.57907         1.26186         1.57817
H           2.53515         2.13023         0.04730
H           4.65980         0.48120         1.30106
H           4.79937         3.42457         0.33959
H           5.68433         4.83425         2.49041
H           7.07951         4.33606         1.48475
H           8.46888         5.09469         4.71796
H           7.10459         5.97957         3.99981
H           8.52829         5.53829         2.99652
H           5.28785         0.88186         3.09371
H           6.28850         1.91740         4.00671
H           7.68893         0.15334         3.32422
H           8.19910         1.49314         2.32191
H           6.21279        -0.63316         1.28250
H           7.89441        -0.91213         1.34160
H           7.90038        -0.13337        -0.75976
H           8.21430         1.35290         0.09279
H           6.54103         1.16214        -1.83236

