%chk=CCCCC1CSCOSCNdCqCNrC1.chk
%NProcShared=20
# opt freq b3lyp/6-31g(2df,p)

Title Card Required 

0  1
C           0.91204         0.07420         0.01465
C           2.43444         0.08783        -0.02563
C           2.94953        -1.09838         0.76324
C           4.47791        -1.18612         0.84677
C           4.96742        -2.39978         1.70549
C           4.13021        -2.40391         3.02194
S           4.22971        -3.62159         4.35398
C           3.21917        -4.97003         3.63661
O           3.77694        -6.20360         4.08636
S           3.53191        -7.53603         3.11444
C           4.89549        -7.30255         1.88526
N           4.82771        -6.02186         1.20490
C           5.49024        -4.95843         1.54033
C           6.65480        -4.80721         2.53210
N           6.82823        -5.94098         3.42828
C           4.99427        -3.67883         0.83898
H           0.50615         0.92619        -0.53358
H           0.54650         0.12554         1.04773
H           0.52105        -0.84818        -0.42843
H           2.80154         1.01498         0.42934
H           2.79286         0.04573        -1.05712
H           2.54466        -2.03287         0.35787
H           2.52731        -0.96002         1.76286
H           4.85514        -0.26307         1.30685
H           4.90732        -1.22477        -0.16212
H           6.01307        -2.17787         1.95906
H           3.06751        -2.42662         2.79891
H           4.34612        -1.44611         3.51160
H           3.18693        -4.89631         2.54790
H           2.18904        -4.85499         3.98346
H           4.75955        -8.09688         1.14483
H           5.85715        -7.56035         2.32602
H           6.49300        -3.93574         3.16257
H           7.56463        -4.58720         1.97112
H           5.94409        -6.08848         3.93307
H           7.50913        -5.72837         4.15200
H           3.99025        -3.86419         0.43228
H           5.64424        -3.52440        -0.03418

