%chk=CCCCCCCCCCdCCqOrCOOC.chk
%NProcShared=20
# opt freq b3lyp/6-31g(2df,p)

Title Card Required 

0  1
C           0.90254        -0.00411        -0.05065
C           2.41891        -0.00936        -0.05678
C           2.94362        -0.93969        -1.14161
C           4.46426        -0.94698        -1.15012
C           4.97847        -1.87834        -2.23616
C           6.49755        -1.88457        -2.24348
C           7.01147        -2.81522        -3.32884
C           8.53096        -2.81974        -3.33423
C           9.04995        -3.75058        -4.41993
C          10.54205        -3.76180        -4.42835
C          11.24799        -4.50424        -5.29456
C          12.74537        -4.52284        -5.30954
O          13.19579        -4.93726        -4.01734
C          13.28157        -5.45241        -6.39984
O          14.70414        -5.39573        -6.38554
O          15.13847        -6.31917        -7.42056
C          16.55602        -6.27541        -7.36371
H           0.52895         0.66464         0.72915
H           0.51284        -1.00916         0.14006
H           0.51284         0.33760        -1.01489
H           2.78967        -0.33218         0.92309
H           2.78967         1.00827        -0.22644
H           2.57094        -0.61768        -2.12190
H           2.57094        -1.95760        -0.97282
H           4.84202        -1.27238        -0.17307
H           4.84202         0.06825        -1.32276
H           4.60326        -1.55450        -3.21482
H           4.60328        -2.89493        -2.06530
H           6.87378        -2.20899        -1.26542
H           6.87376        -0.86848        -2.41492
H           6.63574        -2.49073        -4.30697
H           6.63582        -3.83143        -3.15719
H           8.90337        -3.14112        -2.35285
H           8.90358        -1.80092        -3.50199
H           8.67815        -3.41817        -5.39667
H           8.67585        -4.76599        -4.24128
H          11.07377        -3.14985        -3.70107
H          10.71739        -5.11133        -6.02360
H          13.13266        -3.51087        -5.47563
H          12.88947        -5.84917        -3.88362
H          12.92230        -5.13332        -7.38557
H          12.96524        -6.48656        -6.21775
H          16.95438        -6.93801        -8.13432
H          16.90021        -6.61533        -6.38247
H          16.90459        -5.25538        -7.55074

