%chk=CCCC1dCCdCC1qNrCqOrOCOC.chk
%NProcShared=20
# opt freq b3lyp/6-31g(2df,p)

Title Card Required 

0  1
C           0.96419        -0.01084         0.07862
C           2.47366         0.02292         0.12165
C           3.07359         1.09576        -0.79827
C           4.57734         1.10512        -0.79041
C           5.40687         2.16732        -0.80851
C           6.77849         1.71611        -0.83051
C           6.80482         0.37093        -0.82896
C           5.40051        -0.17164        -0.82954
N           5.22574        -0.95821         0.40198
C           5.13439        -0.98190        -2.15255
O           5.95011        -2.15135        -2.17931
O           3.77650        -1.38437        -2.21017
C           3.46175        -2.05381        -3.40146
O           2.07733        -2.37406        -3.38966
C           1.76069        -3.14850        -4.53227
H           0.60204        -0.81653         0.72578
H           0.61090        -0.21008        -0.93791
H           0.54890         0.93573         0.42775
H           2.79749        -0.98101        -0.16546
H           2.81497         0.17944         1.15058
H           2.69298         2.07943        -0.49837
H           2.72501         0.93511        -1.82725
H           5.11904         3.20864        -0.82548
H           7.64417         2.35517        -0.84934
H           7.68260        -0.25267        -0.85288
H           5.37582        -0.33668         1.19482
H           5.90712        -1.70202         0.46469
H           5.37015        -0.36011        -3.02760
H           5.69135        -2.59895        -1.35443
H           4.04101        -2.98035        -3.45300
H           3.67758        -1.41107        -4.26130
H           0.70126        -3.40749        -4.49843
H           2.35203        -4.06951        -4.53673
H           1.96155        -2.56839        -5.43746

