%chk=CCCCOCOCCqCrCdCCCOO.chk
%NProcShared=20
# opt freq b3lyp/6-31g(2df,p)

Title Card Required 

0  1
C           0.91914         0.01666        -0.07661
C           2.43508         0.02737        -0.07544
C           2.97108         1.44594         0.07248
C           4.48798         1.43556         0.07084
O           4.96126         2.76906         0.20673
C           6.38000         2.77555         0.20268
O           6.85956         4.10307         0.32058
C           8.28366         4.11013         0.34345
C           8.79039         5.54428         0.52137
C           8.25266         6.13837         1.82853
C          10.29957         5.56768         0.48958
C          11.01135         6.70069         0.59456
C          12.50745         6.72575         0.61222
C          13.03527         8.14657         0.76843
O          14.46032         8.11049         0.76782
O          14.87619         9.49652         0.91261
H           0.54804        -1.00656        -0.18334
H           0.52819         0.61307        -0.90682
H           0.52814         0.42894         0.85877
H           2.80419        -0.41497        -1.00852
H           2.80423        -0.59800         0.74625
H           2.60661         1.90206         1.00131
H           2.60629         2.08382        -0.74218
H           4.85884         1.01208        -0.86997
H           4.86022         0.82950         0.90526
H           6.74171         2.34780        -0.73944
H           6.74411         2.18123         1.04932
H           8.65734         3.69068        -0.59933
H           8.63964         3.47900         1.16840
H           8.40624         6.14531        -0.31392
H           8.59862         5.55899         2.69200
H           7.15840         6.14563         1.84014
H           8.58130         7.17372         1.96543
H          10.82678         4.62063         0.39095
H          10.48623         7.64886         0.68991
H          12.90092         6.29005        -0.31387
H          12.88348         6.10832         1.43781
H          12.68678         8.58396         1.71195
H          12.69041         8.77545        -0.06105
H          15.83338         9.31920         0.89336

