%chk=CCCC1[N]C2NdC[C]qNrN12.chk
%NProcShared=20
# opt freq b3lyp/6-31g(2df,p)

Title Card Required 

0  1
C           1.04989         0.03307        -0.04127
C           2.57263         0.06695         0.01557
C           3.03968         1.41680         0.56565
C           4.58611         1.54231         0.56659
N           5.09014         2.77412         1.24804
C           4.78304         3.50546         0.00723
N           5.72174         4.47042        -0.58196
C           6.45068         3.75926        -1.36984
C           6.29394         2.30733        -1.15712
N           7.41719         1.58168        -0.60080
N           4.94809         2.18868        -0.68245
H           0.69151        -0.94492        -0.37446
H           0.66753         0.78921        -0.73661
H           0.62350         0.23756         0.94614
H           2.97384        -0.10721        -0.99112
H           2.93949        -0.74352         0.65317
H           2.63119         1.57839         1.56796
H           2.57854         2.18236        -0.07955
H           5.09299         0.62348         0.87842
H           3.78676         3.94933         0.11729
H           7.14397         4.11519        -2.14577
H           8.02277         2.28433        -0.16869
H           7.05903         1.05091         0.19328

