%chk=CCCCCqdOrCCSCCCCCqCrC.chk
%NProcShared=20
# opt freq b3lyp/6-31g(2df,p)

Title Card Required 

0  1
C           1.09267         0.01016        -0.02633
C           2.61324         0.00538        -0.02296
C           3.13826        -1.16412         0.79978
C           4.66417        -1.21528         0.83576
C           5.13329        -2.39892         1.66845
O           4.33496        -3.16928         2.21039
C           6.62730        -2.59375         1.80555
C           6.93755        -3.81957         2.66822
S           8.74752        -3.98133         2.78406
C           8.90505        -5.46454         3.83428
C          10.40288        -5.71790         4.02443
C          10.64883        -6.94788         4.88691
C          12.14544        -7.21964         5.05879
C          12.40884        -8.46941         5.91309
C          11.79338        -9.71928         5.28171
C          13.91239        -8.67520         6.09181
H           0.71436         0.84930        -0.61666
H           0.70106         0.10321         0.99212
H           0.70106        -0.91695        -0.45801
H           2.97987         0.95073         0.39257
H           2.97987        -0.06630        -1.05311
H           2.75187        -2.10427         0.38520
H           2.75187        -1.09158         1.82472
H           5.06152        -0.29387         1.27609
H           5.06152        -1.31838        -0.18024
H           7.04500        -1.68635         2.25815
H           7.04509        -2.71330         0.79865
H           6.50948        -4.72155         2.21631
H           6.50869        -3.69902         3.66947
H           8.43325        -6.32707         3.34953
H           8.42369        -5.30248         4.80494
H          10.88288        -4.85083         4.49447
H          10.88316        -5.87446         3.04931
H          10.16118        -7.79747         4.40012
H          10.18515        -6.82112         5.87218
H          12.62111        -6.34867         5.52931
H          12.61593        -7.33875         4.07407
H          11.96155        -8.31904         6.90417
H          12.20115        -9.88724         4.27901
H          10.70630        -9.63794         5.19503
H          11.99356       -10.60472         5.89108
H          14.40469        -8.83113         5.12568
H          14.11016        -9.55140         6.71799
H          14.37406        -7.80638         6.57201

