%chk=CCCdCdCCdCSC.chk
%NProcShared=20
# opt freq b3lyp/6-31g(2df,p)

Title Card Required 

0  1
C           0.93355        -0.01381        -0.04136
C           2.45870        -0.01467        -0.04910
C           3.04746         0.55985        -1.30990
C           4.32547         0.63553        -1.56189
C           5.60743         0.74352        -1.79673
C           6.38906        -0.33135        -2.37529
C           7.71345        -0.28195        -2.61846
S           8.52019        -1.65666        -3.31894
C          10.25160        -1.14457        -3.46337
H           0.55950        -0.45338         0.89015
H           0.53047        -0.60071        -0.87348
H           0.53372         1.00333        -0.11454
H           2.80750        -1.04651         0.07166
H           2.81259         0.55970         0.81510
H           2.35254         0.94215        -2.05500
H           6.10758         1.66890        -1.53179
H           5.83300        -1.23621        -2.62015
H           8.29204         0.60685        -2.38314
H          10.82087        -1.97230        -3.90370
H          10.69323        -0.92450        -2.48743
H          10.36647        -0.27948        -4.12244

