%chk=CCCqCCrCCqOrCNdCqCrN.chk
%NProcShared=20
# opt freq b3lyp/6-31g(2df,p)

Title Card Required 

0  1
C           1.07196         0.13181         0.36626
C           2.57167         0.07041         0.11484
C           3.01522        -0.95708        -0.95492
C           2.46033        -0.64323        -2.36101
C           0.96579        -0.72003        -2.57095
C           4.57449        -1.01134        -0.98222
C           5.15836        -2.06467        -1.94830
O           4.81595        -1.77697        -3.30593
C           6.68426        -2.08747        -1.88791
N           7.17943        -3.10762        -2.81955
C           8.44568        -3.21855        -2.98632
C           9.47926        -2.40076        -2.24945
N           8.90107        -4.14183        -3.87912
H           0.84412         0.71436         1.26139
H           0.64402        -0.86989         0.47280
H           0.55403         0.66238        -0.42840
H           3.05090        -0.17803         1.07040
H           2.92817         1.06912        -0.16480
H           2.66544        -1.95110        -0.64500
H           2.80572        -1.40320        -3.05608
H           2.85160         0.32199        -2.70375
H           0.56176        -1.62938        -2.11755
H           0.75113        -0.74028        -3.64327
H           0.44546         0.15728        -2.20399
H           4.94339        -1.22510         0.03185
H           4.95871        -0.01696        -1.24839
H           4.75725        -3.05358        -1.69861
H           5.08616        -0.86540        -3.49685
H           7.01360        -2.30433        -0.86759
H           7.04778        -1.09989        -2.20163
H           9.04342        -1.67087        -1.56666
H          10.09341        -1.86027        -2.97265
H          10.10363        -3.07646        -1.66124
H           8.21111        -4.68103        -4.38827
H           9.87911        -4.30814        -4.05383

