%chk=CCCqOCOCrC1dCqCrc2ccncc21.chk
%NProcShared=20
# opt freq b3lyp/6-31g(2df,p)

Title Card Required 

0  1
C           1.33991        -0.08551        -0.27889
C           2.87180        -0.19835         0.09102
C           3.44093         0.48078         1.41901
O           2.84588         0.10912         2.67423
C           1.41743         0.26391         2.66762
O           0.77002        -0.00146         3.90980
C          -0.64364        -0.14209         3.70485
C           5.16997         0.84591         1.57096
C           5.24255         2.19730         1.86122
C           4.46317         2.78349         3.09359
C           6.66537         2.04071         1.70818
C           7.50685         2.02296         0.59711
C           8.69342         1.42607         0.72627
N           8.99576         0.80613         1.89279
C           7.90257         0.64581         2.74155
C           6.56312         0.96887         2.58492
H           1.15384        -0.43868        -1.30192
H           0.95015         0.93926        -0.21834
H           0.67240        -0.73508         0.29746
H           3.37714         0.26102        -0.76860
H           3.11261        -1.26265         0.09055
H           3.08636         1.50912         1.22311
H           1.04831        -0.51722         2.02694
H           1.11353         1.26078         2.31214
H          -1.09039        -0.55807         4.61082
H          -0.87890        -0.82412         2.87547
H          -1.09493         0.83432         3.50019
H           3.38967         2.62095         3.00903
H           4.71206         3.82903         3.23869
H           4.76843         2.23843         4.00620
H           7.12889         2.33454        -0.39376
H           9.45773         1.36027        -0.05387
H           8.31866         0.70810         3.77950

