%chk=CCCqCCrCCCC1dCCdCCCN1.chk
%NProcShared=20
# opt freq b3lyp/6-31g(2df,p)

Title Card Required 

0  1
C           0.95324        -0.24127         0.08516
C           2.45362        -0.03092        -0.04477
C           2.91359         0.63225        -1.36191
C           2.39874         2.08130        -1.54330
C           0.90308         2.25732        -1.69870
C           4.46603         0.62015        -1.40185
C           5.00324         1.21388        -2.70630
C           6.51635         1.31999        -2.71976
C           7.07195         1.91623        -4.00662
C           8.14771         1.28623        -4.49654
C           8.55340         1.29282        -5.87839
C           8.40222         2.26309        -6.77366
C           7.89717         3.66313        -6.56731
C           7.18018         4.06184        -5.27026
N           6.42888         2.96348        -4.66494
H           0.71951        -0.89141         0.93075
H           0.53071        -0.67361        -0.82717
H           0.43578         0.68542         0.31843
H           2.92714        -1.01757         0.03869
H           2.80901         0.56135         0.80671
H           2.56070         0.01958        -2.20317
H           2.79983         2.50486        -2.46658
H           2.77217         2.70559        -0.72341
H           0.49629         1.53085        -2.40816
H           0.67916         3.26489        -2.05803
H           0.38256         2.18847        -0.74963
H           4.83769        -0.40818        -1.28970
H           4.86265         1.18782        -0.54982
H           4.63101         2.22855        -2.82698
H           4.64509         0.61699        -3.55451
H           6.90220         0.29785        -2.59111
H           6.87180         1.89913        -1.86114
H           8.63119         0.51923        -3.89666
H           8.97458         0.34134        -6.20289
H           8.67350         2.02716        -7.80273
H           7.23793         3.90336        -7.40973
H           8.77497         4.31224        -6.67079
H           6.50494         4.90121        -5.49516
H           7.90173         4.46666        -4.54768
H           5.47490         3.18049        -4.39969

