%chk=CCCqCrCCCdCqOrCqCrdN.chk
%NProcShared=20
# opt freq b3lyp/6-31g(2df,p)

Title Card Required 

0  1
C           1.03837         0.08955         0.05510
C           2.55861         0.07414        -0.01337
C           3.07431        -0.77129        -1.18948
C           2.55113        -0.23030        -2.52614
C           4.61179        -0.80449        -1.17896
C           5.14934        -1.68695        -2.30832
C           6.63749        -1.72647        -2.34034
C           7.36281        -2.39478        -3.25534
O           6.77779        -3.14141        -4.26520
C           8.86357        -2.37392        -3.24782
C           9.64546        -1.59343        -2.21863
N           9.54061        -3.03648        -4.13849
H           0.69747         0.67940         0.90886
H           0.64826        -0.92860         0.15211
H           0.59919         0.54054        -0.83896
H           2.95008        -0.32580         0.93068
H           2.93013         1.10255        -0.09983
H           2.71098        -1.79990        -1.06131
H           2.90536         0.79299        -2.68932
H           1.46086        -0.23454        -2.56982
H           2.86837        -0.84349        -3.37232
H           4.96894        -1.18727        -0.21258
H           5.00856         0.21529        -1.27541
H           4.82564        -1.29200        -3.27492
H           4.75176        -2.70131        -2.19000
H           7.11292        -1.13654        -1.56920
H           5.81139        -3.08372        -4.18706
H           9.03493        -1.04999        -1.50123
H          10.27561        -0.86361        -2.73340
H          10.27620        -2.28703        -1.65688
H           8.86965        -3.51069        -4.76101

