%chk=CCdCC1dCCCqCCCrC1C.chk
%NProcShared=20
# opt freq b3lyp/6-31g(2df,p)

Title Card Required 

0  1
C           0.93304        -0.02045        -0.00905
C           2.42573        -0.01620        -0.00558
C           3.15593         1.08870        -0.20982
C           4.59733         1.10571        -0.21596
C           5.37662         0.20304        -0.81910
C           6.82572         0.49410        -0.63442
C           6.83267         1.96437        -0.17329
C           7.13525         2.92305        -1.34141
C           8.53705         2.76157        -1.91952
C           8.73633         3.73302        -3.06922
C           5.41975         2.18424         0.45138
C           4.87297         3.59956         0.27249
H           0.56445        -1.03317         0.18273
H           0.54343         0.29829        -0.98071
H           0.53855         0.63333         0.77451
H           2.91679        -0.96928         0.17801
H           2.65265         2.03798        -0.37893
H           5.01884        -0.65089        -1.37940
H           7.36032         0.32719        -1.57128
H           7.25164        -0.16814         0.12622
H           7.60463         2.11253         0.59394
H           7.05129         3.96014        -0.99460
H           6.39060         2.78662        -2.13595
H           8.69957         1.74707        -2.29171
H           9.28314         2.94817        -1.13917
H           7.99589         3.55505        -3.85650
H           9.73284         3.60800        -3.49963
H           8.63094         4.76787        -2.72856
H           5.47068         1.96322         1.52721
H           4.75382         3.85504        -0.78669
H           5.54325         4.33272         0.73303
H           3.89020         3.71203         0.73854

