%chk=CCdCCCCqCCrCCqOrdNCC.chk
%NProcShared=20
# opt freq b3lyp/6-31g(2df,p)

Title Card Required 

0  1
C           0.93490         0.05177        -0.07069
C           2.41357         0.04765         0.03920
C           3.05646         0.80507         0.94185
C           4.53915         0.85814         0.92743
C           5.19624         1.89891         1.82776
C           6.74360         1.90345         1.69631
C           7.22005         2.32542         0.27620
C           6.98972         1.31136        -0.83527
C           7.34131         2.86008         2.75037
C           8.85484         2.90124         2.86758
O           9.58674         2.00751         2.18076
N           9.41969         3.76853         3.61896
C          10.88642         3.71971         3.61515
C          11.40089         4.72111         4.62770
H           0.60992        -0.67283        -0.82182
H           0.57997         1.04276        -0.36894
H           0.49879        -0.22457         0.89199
H           2.97227        -0.57424        -0.66140
H           2.50955         1.48279         1.58837
H           4.71104         1.15658        -0.09350
H           4.97870        -0.13311         1.08973
H           4.90780         1.69947         2.86788
H           4.80949         2.89514         1.57825
H           7.09974         0.89056         1.92987
H           8.29731         2.50614         0.26705
H           6.77324         3.29000         0.01396
H           7.17425         0.28890        -0.48983
H           7.63651         1.52274        -1.68785
H           5.99399         1.38296        -1.26566
H           6.96069         2.60052         3.74796
H           6.99795         3.88370         2.54541
H           9.08238         1.37373         1.65885
H          11.26843         3.98319         2.62144
H          11.25439         2.72140         3.88249
H          11.04918         5.72948         4.38793
H          12.49453         4.72619         4.63502
H          11.04725         4.47025         5.63287

