%chk=CCN1CC2CCqdCOOOrC3dCNqC2rC3qCrC1.chk
%NProcShared=20
# opt freq b3lyp/6-31g(2df,p)

Title Card Required 

0  1
C           0.96962         0.61749        -0.83367
C           2.71270         0.79639        -0.32870
N           3.36134         1.16693         1.08805
C           3.87901         0.16075         1.98842
C           4.14818        -1.48214         1.04524
C           3.44193        -3.06917         1.30707
C           1.96727        -3.26257         0.75359
C           2.17049        -3.86568        -0.48050
O           3.46773        -4.37186        -0.82303
O           3.50264        -5.04884        -2.11910
O           4.80596        -5.73584        -2.27630
C           0.83199        -1.75285         1.12504
C           1.76406        -1.17183         0.49480
N           2.27543        -1.04810         1.72034
C           3.96058        -1.45903         2.43179
C           1.07595         0.05286         2.00020
C           0.27488         1.64489         1.27063
C           2.28806         1.40152         2.00619
H           0.77959        -0.09724        -1.63922
H           0.51671         1.56740        -1.09226
H           0.21723         0.16743        -0.12191
H           3.09450         1.49520        -1.05421
H           3.26499        -0.09632        -0.67090
H           3.04782        -0.07100         3.05192
H           4.46521         0.49454         2.93179
H           4.95480        -1.35636         0.32852
H           3.24566        -3.40000         2.35218
H           4.23092        -3.81238         1.08231
H           1.58634        -3.72618        -1.37266
H           4.63198        -6.15992        -3.13600
H           2.02369        -1.54023        -0.57133
H           4.18610        -2.26799         3.12023
H           5.12425        -1.07552         2.37101
H          -0.71395         1.66823         0.79151
H           0.88897         2.32193         0.55101
H           0.19939         2.44715         2.06111
H           2.40959         1.65502         3.08215
H           2.13722         2.43301         1.67496

