%chk=CCOCCCdCNCCCdCC1CdCCdCCdC1.chk
%NProcShared=20
# opt freq b3lyp/6-31g(2df,p)

Title Card Required 

0  1
C           1.01409         0.06587         0.07097
C           2.52718         0.07165         0.08780
O           3.01424        -0.36400        -1.18082
C           4.44143        -0.36616        -1.18719
C           4.96147        -0.83185        -2.54342
C           6.46119        -0.83757        -2.55952
C           7.17840        -1.20443        -3.62688
N           8.53894        -1.22583        -3.68666
C           9.30422        -1.62020        -4.84784
C          10.80492        -1.51471        -4.57258
C          11.56977        -1.90743        -5.79163
C          12.90813        -1.95534        -5.86798
C          13.65109        -2.39735        -7.10580
C          13.72562        -1.27849        -8.11951
C          14.36517        -1.37866        -9.29639
C          15.07254        -2.56159        -9.74264
C          14.70622        -3.83599        -9.52336
C          13.53321        -4.26858        -8.80023
C          13.04909        -3.64873        -7.71385
H           0.61991         0.39722         1.03590
H           0.63356        -0.93827        -0.14112
H           0.63356         0.72787        -0.71327
H           2.89104        -0.60311         0.87061
H           2.89104         1.08498         0.29091
H           4.80323        -1.03837        -0.39943
H           4.80321         0.64819        -0.97857
H           4.57474        -0.16977        -3.32778
H           4.57466        -1.83610        -2.75557
H           6.98503        -0.52879        -1.66004
H           6.68369        -1.51902        -4.54410
H           9.04706        -0.93897        -2.85529
H           9.03700        -0.97775        -5.69655
H           9.04674        -2.65145        -5.12209
H          11.07597        -2.17184        -3.73703
H          11.06384        -0.48715        -4.29318
H          10.98970        -2.17591        -6.67375
H          13.51606        -1.66616        -5.01264
H          14.67045        -2.63854        -6.77099
H          13.20222        -0.35215        -7.89192
H          14.38190        -0.52350        -9.96742
H          15.96074        -2.37211       -10.34034
H          15.30892        -4.63819        -9.94203
H          13.03713        -5.16668        -9.15886
H          12.15411        -4.06547        -7.25976

