%chk=CCqCCCCCCSSrCqdOrNOO.chk
%NProcShared=20
# opt freq b3lyp/6-31g(2df,p)

Title Card Required 

0  1
C           1.00663         0.05983        -0.01837
C           2.54014         0.10127        -0.04976
C           3.04662         0.27080        -1.49148
C           2.56173        -0.84873        -2.41445
C           3.06173        -0.64920        -3.83660
C           2.54534        -1.76800        -4.73868
C           3.03829        -1.57148        -6.16962
C           2.53830        -2.68717        -7.08538
S           3.16730        -2.39571        -8.77498
S           2.39612        -3.98094        -9.82794
C           3.04204         1.23496         0.85403
O           2.26916         1.97901         1.45975
N           4.40310         1.32929         0.95156
O           4.89941         2.35581         1.76105
O           6.34355         2.34047         1.73742
H           0.60054        -0.77339        -0.59828
H           0.58844         0.98835        -0.42455
H           0.63532        -0.06266         1.00287
H           2.92164        -0.84345         0.36024
H           4.14324         0.29002        -1.50892
H           2.71646         1.24133        -1.88357
H           1.46840        -0.87366        -2.45372
H           2.89640        -1.81878        -2.02694
H           4.15721        -0.62932        -3.84626
H           2.71094         0.31996        -4.21251
H           1.44804        -1.78110        -4.72109
H           2.88537        -2.73704        -4.35339
H           4.13533        -1.54712        -6.16424
H           2.68939        -0.59655        -6.53350
H           1.44308        -2.69689        -7.09582
H           2.89744        -3.65540        -6.72044
H           2.89059        -3.70609       -11.04762
H           5.09184         0.75580         0.48813
H           6.45526         3.09563         2.34336

