%chk=CCqCrCNdCC1CCCCCCO1.chk
%NProcShared=20
# opt freq b3lyp/6-31g(2df,p)

Title Card Required 

0  1
C           1.00004         0.10805         0.03096
C           2.52951         0.09492        -0.00013
C           3.02546        -1.35383        -0.01327
C           3.04698         0.88457        -1.21976
N           4.50545         0.90325        -1.18692
C           5.09297         1.48170        -2.18444
C           6.61650         1.50171        -2.20649
C           7.16328         0.22843        -2.86221
C           8.62037        -0.09885        -2.50028
C           8.96389         0.14957        -1.02565
C           9.72939         1.45977        -0.79348
C           8.93185         2.75521        -1.01714
C           8.51885         2.97273        -2.47934
O           7.14164         2.69362        -2.77027
H           0.62197        -0.43250         0.90585
H           0.58472        -0.36957        -0.86317
H           0.61647         1.13213         0.07908
H           2.89733         0.57190         0.91844
H           2.68204        -1.87701        -0.91187
H           2.65340        -1.90112         0.85991
H           4.11867        -1.40210         0.01188
H           2.66491         1.91134        -1.17556
H           2.68882         0.41696        -2.14415
H           4.55344         1.93233        -3.03167
H           6.82696         1.49072        -1.14005
H           7.07885         0.29663        -3.95439
H           6.55029        -0.62969        -2.55712
H           9.30908         0.44103        -3.15740
H           8.80422        -1.15341        -2.73908
H           9.58942        -0.67849        -0.67292
H           8.07318         0.10989        -0.38806
H          10.62368         1.47181        -1.42941
H          10.09340         1.46081         0.24169
H           9.57084         3.59077        -0.70720
H           8.07079         2.79135        -0.34145
H           9.16634         2.43558        -3.17857
H           8.67762         4.02691        -2.73366

