%chk=CCqCrNC1Sc2cqcsc2NrNdC1CO.chk
%NProcShared=20
# opt freq b3lyp/6-31g(2df,p)

Title Card Required 

0  1
C           0.98686         0.05013         0.10232
C           2.50271         0.08747         0.19278
C           2.97341        -0.16050         1.62708
N           3.03390        -0.89877        -0.74556
C           4.49622        -0.90169        -0.77509
S           5.02114        -2.23258         0.27933
C           5.88321        -3.22344        -0.82215
C           6.15359        -2.88276        -2.15963
C           6.94390        -3.83843        -2.75020
S           7.29418        -5.14617        -1.68541
C           6.40352        -4.43402        -0.42093
N           6.25864        -4.98770         0.80284
N           5.73243        -1.72447        -2.84988
C           4.99875        -0.86355        -2.21286
C           4.58184         0.41990        -2.99540
O           3.81211         1.39073        -2.31124
H           0.55818         0.82133         0.74785
H           0.59456        -0.92379         0.41313
H           0.64926         0.24435        -0.92242
H           2.83161         1.09502        -0.08079
H           2.67522        -1.15464         1.97660
H           2.56748         0.59282         2.30300
H           4.06253        -0.07685         1.71697
H           2.59764        -0.92267        -1.66203
H           4.91916         0.00908        -0.33693
H           7.34421        -3.84904        -3.75327
H           6.65526        -5.88073         1.06210
H           5.68893        -4.52102         1.50789
H           4.01138         0.11822        -3.87830
H           5.49035         0.93216        -3.32004
H           2.94866         0.99051        -2.10777

