%chk=CCqdOrCqCrCCCqCrdCCN.chk
%NProcShared=20
# opt freq b3lyp/6-31g(2df,p)

Title Card Required 

0  1
C           1.07249         0.06015        -0.03071
C           2.57519         0.03589        -0.05053
O           3.17545        -0.10055        -1.12181
C           3.30430         0.22878         1.28311
C           2.91984        -0.87170         2.26572
C           4.81055         0.21837         1.02629
C           5.67684         0.42291         2.26745
C           7.16149         0.38910         1.99011
C           7.67287         0.15841         0.58923
C           8.03262         0.52758         3.01141
C           9.51400         0.48716         2.81915
N          10.21623         0.66972         4.07597
H           0.69527        -0.07953        -1.04748
H           0.72815         1.02405         0.34943
H           0.69287        -0.75586         0.58625
H           3.01884         1.21074         1.67942
H           3.19013        -1.85561         1.86606
H           1.84770        -0.87059         2.47152
H           3.41862        -0.74592         3.23041
H           5.04139         1.00884         0.29855
H           5.07101        -0.74339         0.56258
H           5.46583        -0.36373         3.00108
H           5.40983         1.38083         2.73251
H           6.89913         0.03792        -0.16798
H           8.26967        -0.75847         0.55344
H           8.27899         1.00977         0.26752
H           7.65684         0.66337         4.02429
H           9.81616         1.27853         2.12435
H           9.80256        -0.47961         2.39290
H          10.01312         1.60201         4.43090
H          11.21615         0.65928         3.88041

