%chk=CCqdCdCOrCCCCCCCdO.chk
%NProcShared=20
# opt freq b3lyp/6-31g(2df,p)

Title Card Required 

0  1
C           1.06565        -0.09778         0.02612
C           2.56510        -0.17994         0.06964
C           3.18048        -1.32281         0.21931
C           3.84190        -2.43587         0.29839
O           4.26238        -2.90870         1.50777
C           3.29933         1.13764        -0.11061
C           4.81752         0.95474        -0.09850
C           5.56765         2.26615        -0.24739
C           7.06810         1.99441        -0.21685
C           7.84999         3.29073        -0.36121
C           9.34605         3.01640        -0.33053
C          10.12793         4.29264        -0.47288
O          11.35503         4.32092        -0.47567
H           0.61663        -1.09163         0.12894
H           0.72353         0.32620        -0.92356
H           0.69442         0.52610         0.84455
H           4.19736        -3.00492        -0.54650
H           3.93512        -2.31445         2.20583
H           3.00900         1.82666         0.69275
H           2.99879         1.60620        -1.05738
H           5.11320         0.28270        -0.91498
H           5.12160         0.48118         0.84397
H           5.29459         2.94709         0.56694
H           5.29365         2.75002        -1.19187
H           7.33729         1.30449        -1.02700
H           7.33710         1.50029         0.72570
H           7.57718         3.97946         0.44806
H           7.57723         3.78440        -1.30223
H           9.62347         2.34987        -1.15380
H           9.62341         2.54772         0.61943
H           9.54428         5.22313        -0.57687

