%chk=CCqdNrCNCqCrCOOCCdO.chk
%NProcShared=20
# opt freq b3lyp/6-31g(2df,p)

Title Card Required 

0  1
C           0.95975        -0.03997         0.08595
C           2.46598        -0.08455         0.07545
N           3.11934        -1.11366         0.51974
C           3.17908         1.13616        -0.48944
N           4.62787         0.97825        -0.37122
C           5.38130         2.11223        -0.90445
C           5.04632         3.39620        -0.13199
C           6.89471         1.84317        -0.80955
O           7.57633         2.95835        -1.38471
O           8.99429         2.70157        -1.20565
C           9.63352         3.85315        -1.73954
C          11.11680         3.64318        -1.63995
O          11.94189         4.46983        -2.02952
H           0.54290        -0.95148         0.51834
H           0.60080         0.06700        -0.94187
H           0.62265         0.82245         0.66814
H           2.48670        -1.82433         0.89581
H           2.82311         1.98583         0.09988
H           2.87668         1.26958        -1.53353
H           4.89046         0.09475        -0.81415
H           5.12992         2.26572        -1.96229
H           5.27728         3.27789         0.93295
H           3.99111         3.66801        -0.22373
H           5.61275         4.25057        -0.51237
H           7.16783         0.94084        -1.36887
H           7.20528         1.71872         0.23565
H           9.35258         4.73434        -1.15508
H           9.35740         3.97201        -2.79164
H          11.44484         2.69108        -1.19182

