%chk=CCqNrCqCdOrC1COCC1C.chk
%NProcShared=20
# opt freq b3lyp/6-31g(2df,p)

Title Card Required 

0  1
C           0.94990         0.12057         0.16432
C           2.47313         0.05062         0.08132
N           3.00256         0.19068         1.45081
C           2.98768        -1.26351        -0.56486
C           2.31332        -1.51662        -1.91909
O           1.09851        -1.63175        -2.09069
C           4.54327        -1.29038        -0.60960
C           5.12617        -2.64171        -0.22808
O           6.45443        -2.64149        -0.75931
C           6.43346        -1.90065        -1.98125
C           5.22916        -0.97564        -1.93753
C           5.53787         0.50230        -2.09906
H           0.61774         1.03780         0.65830
H           0.54742        -0.74036         0.70947
H           0.49754         0.14439        -0.82907
H           2.83141         0.90524        -0.50311
H           2.64822        -0.56297         2.04172
H           2.64988         1.05215         1.87039
H           2.65688        -2.09895         0.06999
H           2.93449        -1.62997        -2.80662
H           4.94992        -0.59150         0.13654
H           4.56745        -3.47765        -0.65961
H           5.18042        -2.77969         0.85811
H           6.30094        -2.62742        -2.79335
H           7.38217        -1.38392        -2.13740
H           4.66165        -1.24076        -2.82234
H           6.26191         0.84841        -1.35693
H           4.62478         1.09894        -1.99729
H           5.94235         0.69085        -3.09784

