%chk=CCqOrCCqCrCCdCNCqNrdO.chk
%NProcShared=20
# opt freq b3lyp/6-31g(2df,p)

Title Card Required 

0  1
C           0.96579         0.09972         0.05733
C           2.47977         0.06050         0.09673
O           2.80455        -0.99765         0.99152
C           3.07867        -0.14628        -1.30555
C           4.62524        -0.16338        -1.32079
C           5.18424        -1.30480        -0.46356
C           5.14727        -0.29340        -2.76566
C           6.65407        -0.26648        -2.83920
C           7.30134        -0.45413        -3.99144
N           8.66671        -0.47095        -4.08546
C           9.43421        -0.62409        -5.20041
N           8.79963        -0.77745        -6.38166
O          10.66388        -0.61961        -5.14458
H           0.57536         0.21607         1.07437
H           0.57375        -0.85169        -0.31999
H           0.59725         0.91520        -0.56710
H           2.86967         0.99091         0.52470
H           2.64142        -1.84117         0.53612
H           2.72288         0.66125        -1.96154
H           2.70551        -1.08576        -1.73414
H           4.97803         0.79481        -0.91593
H           4.77907        -2.26547        -0.79853
H           4.95799        -1.16525         0.59261
H           6.27268        -1.36458        -0.49617
H           4.74727         0.52395        -3.37947
H           4.77872        -1.23433        -3.19774
H           7.21683        -0.10658        -1.92354
H           6.72527        -0.59917        -4.89507
H           9.21853        -0.36032        -3.24067
H           7.80018        -0.78688        -6.48056
H           9.36248        -0.88407        -7.21175

