%chk=CdC1CdCCdCCdCNCCCCNN1.chk
%NProcShared=20
# opt freq b3lyp/6-31g(2df,p)

Title Card Required 

0  1
C           3.46943        -0.50407         0.74298
C           5.43864        -0.89855         1.41607
C           3.60166        -0.15454         1.60615
C           4.85108         0.32109         1.80382
C           5.32369         0.06437         3.10119
C           6.59201         0.39293         3.22715
C           7.14265        -0.26960         4.25193
C           8.37109        -0.02079         4.32917
N           8.96007        -0.64051         5.52659
C          10.14067        -0.06956         5.33054
C          10.93662        -0.44200         6.62896
C          12.86171        -0.40724         6.37549
C          11.29750        -1.13040         5.62486
N           9.66595        -1.20397         3.81959
N           7.49000        -1.11634         2.41058
H           1.78286        -0.14946         0.89013
H           2.00901        -0.15003        -0.10011
H           2.68379        -0.21700         2.40132
H           5.70846         0.72054         0.98927
H           4.65822        -0.38150         3.73297
H           7.80562         0.59116         2.49278
H           6.77201        -0.52594         5.10079
H           9.10185        -0.00592         3.00218
H           8.78165        -0.53025         6.45759
H          11.10378         0.61124         4.82518
H          10.57342        -1.67149         4.75252
H          10.89337        -1.65097         7.25339
H          10.99569         0.29015         7.38613
H          13.43684         0.45112         6.11117
H          13.39062        -1.46302         5.96562
H          12.22397        -1.51503         7.04666
H          12.24630        -0.55811         7.08578
H          11.06617        -0.68357         4.20226
H           7.04174        -0.51382         1.16507

