%chk=CdC1C2CCdCqNrOCqOCrCC12.chk
%NProcShared=20
# opt freq b3lyp/6-31g(2df,p)

Title Card Required 

0  1
C           0.86549         0.08395        -0.07118
C           2.17585         0.10023        -0.03223
C           3.23754         0.58675         0.70082
C           3.76243         1.98164         0.44639
C           2.91815         2.71933        -0.55177
C           3.20199         2.74710        -1.85955
N           2.42491         3.41466        -2.76495
O           4.36864         2.18508        -2.32917
C           4.30343         0.77844        -2.65798
O           3.17950         0.46680        -3.48021
C           3.18094        -0.84496        -4.00755
C           4.50951        -0.16897        -1.44969
C           3.33153        -0.51926        -0.59629
H           0.28737         0.62153         0.67375
H           0.33901        -0.48922        -0.82720
H           3.24333         0.29568         1.73913
H           4.79038         1.91276         0.07251
H           3.87831         2.56672         1.36387
H           1.97674         3.11955        -0.18924
H           1.44480         3.49352        -2.51125
H           2.59711         3.13997        -3.72679
H           5.20251         0.63981        -3.27753
H           2.25677        -0.96610        -4.57561
H           3.17748        -1.59853        -3.21903
H           4.04025        -1.00695        -4.66262
H           5.32024         0.19295        -0.80865
H           4.90647        -1.12447        -1.82465
H           2.73621        -1.19534        -1.19452

