%chk=CdC1OCdCCdCCdCCqCOCrdC1C.chk
%NProcShared=20
# opt freq b3lyp/6-31g(2df,p)

Title Card Required 

0  1
C           2.10301        -0.02341         0.07509
C           4.01137        -0.02134         0.19003
O           3.17770         0.00148         1.45637
C           4.25281         0.00988         1.92297
C           5.09011         0.02562         2.79678
C           6.36350         0.02605         2.82027
C           7.11760         0.04561         3.90589
C           8.68619         0.02833         2.94710
C           8.87568         0.05207         4.26484
C           8.07610         0.01823         2.38655
C           9.96415         0.04940         4.11676
O          11.96068         0.06822         5.16116
C          13.45814         0.09544         6.67212
C           6.20871        -0.00820         0.91927
C           4.53976        -0.03955        -0.82060
H           0.78992        -0.00841         0.90753
H           0.79644        -0.03859        -0.76734
H           4.86026        -0.00229         1.24724
H           4.61990         0.04000         3.59459
H           7.32194         0.00087         1.42255
H           6.82046         0.06242         4.83912
H           9.76835         0.02095         2.53734
H           8.95334         0.07677         5.63576
H          10.74078        -0.50344         5.51197
H          10.74078         0.65215         5.49115
H          14.97320         0.09777         6.80129
H          13.68006        -0.77473         7.62414
H          13.68006         0.99934         7.59219
H           3.81738        -0.06732        -2.36225
H           3.12375         0.49070        -1.66428
H           3.12375        -0.59983        -1.64464

