%chk=CdC1CqdNCrCqCSrCSCC1C.chk
%NProcShared=20
# opt freq b3lyp/6-31g(2df,p)

Title Card Required 

0  1
C           0.98996         0.05154        -0.05143
C           2.32575         0.15861        -0.08846
C           3.10272        -1.11070         0.12796
N           3.09988        -2.14089        -0.64292
C           2.30380        -2.12172        -1.87305
C           4.01462        -1.13788         1.37474
C           3.23042        -0.76266         2.64620
S           4.19575        -0.58970         4.18012
C           5.28610        -0.33787         1.04518
S           5.34978         1.44210         1.46451
C           3.68964         2.02241         0.99193
C           3.14112         1.42135        -0.31256
C           2.32499         2.51563        -0.99828
H           0.48466        -0.89808         0.11593
H           0.33767         0.90718        -0.19351
H           2.48112        -3.03855        -2.44580
H           2.57004        -1.28021        -2.52220
H           1.23097        -2.10175        -1.66144
H           4.32709        -2.18717         1.49304
H           2.42216        -1.47988         2.81695
H           2.70907         0.18269         2.53669
H           4.66585        -1.83849         4.23706
H           5.53307        -0.42039        -0.02131
H           6.13464        -0.79004         1.57196
H           3.79926         3.10777         0.90399
H           2.97832         1.91524         1.81536
H           3.96839         1.18176        -0.99459
H           1.47796         2.82045        -0.37419
H           1.95332         2.17679        -1.96871
H           2.94633         3.40196        -1.16064

