%chk=CdCCCqCrCqCCrCqdCrCC.chk
%NProcShared=20
# opt freq b3lyp/6-31g(2df,p)

Title Card Required 

0  1
C           0.93182         0.15836        -0.06104
C           2.25873         0.21756        -0.01769
C           3.05660        -0.96637         0.44126
C           4.57812        -0.81249         0.37517
C           4.93412         0.37638         1.30136
C           5.40464        -2.10919         0.73604
C           5.02688        -3.38610        -0.08301
C           3.60125        -3.92298         0.01760
C           6.94047        -1.85364         0.58494
C           7.44115        -0.74058         0.00592
C           7.89182        -2.92157         1.12037
C           9.36978        -2.55241         0.97713
H           0.34876         0.97016        -0.48247
H           0.40358        -0.72969         0.28441
H           2.78076         1.07439        -0.44159
H           2.75188        -1.69284        -0.29094
H           2.75201        -1.29859         1.44091
H           4.81507        -0.56543        -0.66979
H           4.60807         0.17021         2.32367
H           4.45078         1.29317         0.95343
H           5.99202         0.62780         1.36207
H           5.21126        -2.33146         1.79728
H           5.65487        -4.21909         0.25645
H           5.27206        -3.22326        -1.13856
H           3.23923        -3.92037         1.05014
H           3.53809        -4.93994        -0.37789
H           2.90383        -3.39068        -0.62368
H           6.83192         0.03250        -0.44266
H           8.49501        -0.49565        -0.02280
H           7.73908        -3.85130         0.56076
H           7.67438        -3.13489         2.17363
H           9.61405        -2.34951        -0.07373
H          10.02592        -3.35766         1.31014
H           9.60011        -1.65734         1.56699

