%chk=CdCCqOrC1CSCCS1.chk
%NProcShared=20
# opt freq b3lyp/6-31g(2df,p)

Title Card Required 

0  1
C           0.86838        -0.04958         0.11990
C           2.21267        -0.05625         0.11389
C           2.99014        -0.77261        -0.94843
O           2.53492        -0.22680        -2.19031
C           4.53360        -0.67189        -0.73895
C           5.15792        -2.00617        -0.29305
S           4.90989        -3.39086        -1.45522
C           5.66802        -2.65333        -2.93890
C           5.08196        -1.31660        -3.37540
S           5.42765         0.02392        -2.18877
H           0.31328         0.49186         0.87187
H           0.31777        -0.57563        -0.65542
H           2.74699         0.48866         0.88335
H           2.67379        -1.82097        -0.93642
H           3.01276         0.61183        -2.31874
H           4.74677         0.03884         0.06944
H           4.72298        -2.30864         0.66666
H           6.23598        -1.89925        -0.12273
H           5.52568        -3.37445        -3.74845
H           6.74322        -2.56485        -2.75963
H           4.00964        -1.40543        -3.56860
H           5.53333        -1.01095        -4.32348

