%chk=CdCCCqdCC1CC1COOrCCqCrC.chk
%NProcShared=20
# opt freq b3lyp/6-31g(2df,p)

Title Card Required 

0  1
C           0.72389        -0.57866        -0.67965
C           1.96963        -0.94311        -0.37197
C           3.07573        -1.11741        -1.33759
C           4.42517        -0.53670        -0.90878
C           4.69572         0.41669         0.02299
C           3.89570         1.12729         1.04298
C           3.51942         2.56295         0.78823
C           2.44233         1.50705         0.88773
C           1.50380         1.23990         2.07387
O           1.17565        -0.16542         2.25850
O          -0.27615        -0.28016         2.45521
C           5.53636        -1.23628        -1.70650
C           7.00181        -1.00941        -1.28926
C           7.28512        -1.53306         0.12515
C           7.95242        -1.70857        -2.26400
H           0.07205        -0.12624         0.06615
H           0.34153        -0.57629        -1.69164
H           2.34072        -0.96093         0.65008
H           2.80719        -0.64949        -2.29114
H           3.16368        -2.19728        -1.48341
H           5.74127         0.70947         0.12771
H           4.24854         0.91669         2.05173
H           3.76818         2.94632        -0.20270
H           3.53148         3.32346         1.55375
H           1.91516         1.49154        -0.05748
H           0.58165         1.80619         1.93071
H           1.98506         1.51480         3.01098
H          -0.38139        -1.16527         2.04717
H           5.40899        -0.95592        -2.76114
H           5.35259        -2.32069        -1.65771
H           7.21912         0.06407        -1.34060
H           7.16214        -2.61982         0.17284
H           6.62533        -1.10931         0.88543
H           8.30851        -1.28481         0.42161
H           7.82196        -2.79591        -2.23540
H           8.99182        -1.48606        -1.99964
H           7.78776        -1.37116        -3.29200

