%chk=CdCC1CCCCqCrdC1CCC.chk
%NProcShared=20
# opt freq b3lyp/6-31g(2df,p)

Title Card Required 

0  1
C           0.99738         0.05148         0.17839
C           2.33507         0.01728         0.03352
C           3.10594        -0.63377        -1.10908
C           4.04012        -1.71692        -0.52927
C           3.26176        -2.97066        -0.16785
C           2.57121        -3.53683        -1.39090
C           1.93791        -2.52510        -2.31409
C           1.03087        -3.23861        -3.29170
C           2.18655        -1.18655        -2.22415
C           1.61906        -0.07519        -3.13286
C           0.64798        -0.56750        -4.19472
C           0.02956         0.44528        -5.11679
H           0.53034         0.52629         1.03067
H           0.33905        -0.40067        -0.55467
H           2.93984         0.47823         0.81264
H           3.75662         0.14081        -1.54130
H           4.57002        -1.35189         0.35945
H           4.81157        -1.96994        -1.26875
H           2.51497        -2.74874         0.60388
H           3.92879        -3.73292         0.24776
H           1.80632        -4.24478        -1.04916
H           3.29536        -4.10471        -1.98908
H           1.00773        -4.31860        -3.11992
H           1.38152        -3.12998        -4.31937
H          -0.00850        -2.92331        -3.17167
H           2.45397         0.44735        -3.61757
H           1.10340         0.67665        -2.52290
H          -0.19273        -1.05141        -3.69298
H           1.17805        -1.26395        -4.84585
H          -0.58290         1.15729        -4.56213
H          -0.62192        -0.09864        -5.81312
H           0.79439         0.96322        -5.69613

