%chk=CdCCCNqCdOrC1CNqCdOrC1.chk
%NProcShared=20
# opt freq b3lyp/6-31g(2df,p)

Title Card Required 

0  1
C           1.01348         0.11403        -0.04524
C           2.35250         0.11724        -0.05062
C           3.09761        -0.32903         1.16399
C           4.61794        -0.29984         1.04833
N           5.34031        -0.79082         2.23723
C           4.69259        -1.15399         3.41365
O           3.48940        -1.22015         3.63841
C           6.83531        -0.75236         2.19290
C           7.55688        -1.93934         2.89604
N           8.48457        -1.87113         1.79372
C           9.76545        -2.27381         1.61004
O          10.39921        -2.15592         0.56910
C           7.51843        -1.27181         0.89620
H           0.44344         0.42940        -0.90931
H           0.46417        -0.20962         0.83769
H           2.90150         0.43841        -0.92952
H           2.79063        -1.36002         1.37951
H           2.80061         0.32325         1.99434
H           4.96426         0.72350         0.85126
H           4.92788        -0.91427         0.19470
H           5.39661        -1.41772         4.21317
H           7.20217         0.23540         2.50842
H           6.99500        -2.87997         2.91001
H           7.96463        -1.72437         3.88513
H          10.20577        -2.72893         2.51229
H           6.96450        -2.02937         0.33241
H           7.91576        -0.50936         0.22359

