%chk=CdCCC1dCCCqCCrCqCrCC1.chk
%NProcShared=20
# opt freq b3lyp/6-31g(2df,p)

Title Card Required 

0  1
C           0.94587         0.01340         0.09899
C           2.28831         0.01222         0.14502
C           3.05760        -0.44640         1.35285
C           4.54536        -0.37790         1.10386
C           5.18009        -1.47005         0.63883
C           6.61159        -1.59748         0.22299
C           7.58253        -0.57891         0.85049
C           9.02848        -1.10220         0.91544
C           9.14466        -2.38281         1.73148
C           7.49711         0.79060         0.12036
C           8.02165         0.72514        -1.32526
C           6.06721         1.37251         0.10046
C           5.19594         0.97801         1.29602
H           0.42107         0.34067        -0.79045
H           0.36042        -0.31719         0.94844
H           2.84203         0.33773        -0.73279
H           2.76863        -1.47996         1.58436
H           2.80131         0.16010         2.22814
H           4.60797        -2.38840         0.50435
H           6.63990        -1.54636        -0.86914
H           6.90115        -2.62165         0.45534
H           7.30297        -0.42551         1.90254
H           9.66328        -0.33648         1.38153
H           9.42336        -1.28822        -0.08640
H           8.76420        -2.23500         2.74696
H          10.18705        -2.70290         1.78514
H           8.58974        -3.20709         1.27800
H           8.13288         1.50192         0.66742
H           7.43955         0.02717        -1.93532
H           9.06629         0.40668        -1.36548
H           7.95625         1.70163        -1.81330
H           5.55526         1.07275        -0.82424
H           6.14066         2.46635         0.05513
H           4.41909         1.74290         1.41154
H           5.75865         0.99790         2.23751

