%chk=CdCC12CdCCCCCCOC1dC2.chk
%NProcShared=20
# opt freq b3lyp/6-31g(2df,p)

Title Card Required 

0  1
C           0.96770        -0.16351         0.14385
C           2.30848        -0.09796         0.07491
C           3.00882         0.71082        -0.92409
C           3.09523         2.14191        -0.62738
C           2.76521         3.14774        -1.45365
C           3.31492         4.53029        -1.30393
C           3.87084         5.10241        -2.61899
C           5.08891         4.40592        -3.26308
C           4.93848         2.90256        -3.51923
C           5.52145         1.99047        -2.43020
O           5.05145         0.64678        -2.63664
C           4.03975         0.17096        -1.83698
C           2.77978         0.21660        -2.23857
H           0.44826        -0.72705         0.90548
H           0.37003         0.37401        -0.59057
H           2.90701        -0.62993         0.81146
H           3.61154         2.38237         0.30286
H           2.25583         2.91372        -2.38535
H           4.11036         4.55360        -0.54959
H           2.50048         5.17027        -0.95286
H           4.14812         6.14900        -2.43385
H           3.06259         5.13623        -3.36139
H           6.00266         4.62540        -2.69853
H           5.22601         4.88573        -4.24394
H           5.44185         2.64587        -4.45933
H           3.89264         2.66218        -3.72332
H           5.36216         2.34123        -1.40836
H           6.61308         1.97664        -2.53571
H           2.18814         0.43344        -3.09721

