%chk=CdCCC1dCqSCCCCrCC1dO.chk
%NProcShared=20
# opt freq b3lyp/6-31g(2df,p)

Title Card Required 

0  1
C           1.07071         0.02618         0.06543
C           2.41042         0.02346         0.04489
C           3.21966        -0.42146        -1.14769
C           4.70768        -0.25027        -0.89346
C           5.58395         0.78485        -0.74602
S           5.30565         2.50906        -0.79265
C           6.96229         3.21830        -0.48915
C           6.86283         4.75538        -0.50322
C           8.21793         5.43139        -0.26138
C           8.09445         6.95048        -0.28117
C           6.77280        -0.13940        -0.48995
C           5.75785        -1.26001        -0.71624
O           5.76381        -2.47563        -0.73578
H           0.52905         0.35690         0.94642
H           0.48882        -0.29791        -0.79171
H           2.94385         0.35773         0.93234
H           2.92866         0.23690        -1.97408
H           2.98272        -1.46726        -1.37251
H           7.65834         2.88930        -1.26782
H           7.34309         2.88497         0.48206
H           6.16086         5.09476         0.26997
H           6.46973         5.09850        -1.46936
H           8.93369         5.12255        -1.03174
H           8.62483         5.11998         0.70744
H           7.71961         7.30175        -1.24810
H           9.06961         7.41747        -0.10746
H           7.40958         7.29932         0.49864
H           7.18749        -0.14087         0.52234
H           7.58036        -0.13098        -1.22677

