%chk=CdCNCCqOOrdCqCrCNSC.chk
%NProcShared=20
# opt freq b3lyp/6-31g(2df,p)

Title Card Required 

0  1
C           0.94257        -0.07989         0.04867
C           2.27916        -0.05265         0.05509
N           3.01888         1.04496         0.36118
C           4.44923         1.17708         0.40372
C           4.99381         2.55529         0.79036
O           4.18916         3.67185         1.10286
O           2.78030         3.37897         1.01820
C           6.34064         2.76039         0.84967
C           7.35364         1.68505         0.55239
C           6.87686         4.13399         1.23482
N           8.34259         4.32034         1.27054
S           8.87980         5.85395         1.68949
C          10.67970         5.69614         1.67504
H           0.40372        -0.98319        -0.20440
H           0.36849         0.80554         0.29746
H           2.85438        -0.94062        -0.19414
H           2.51324         1.89305         0.60655
H           4.83762         0.92168        -0.59016
H           4.83376         0.44107         1.12071
H           2.47046         4.26456         1.27705
H           6.90989         0.72243         0.28605
H           7.98610         1.50583         1.42676
H           7.98021         1.97822        -0.29546
H           6.48520         4.37660         2.23184
H           6.46691         4.86270         0.52234
H           8.70760         4.06240         0.35358
H          11.09959         6.66907         1.95249
H          11.04956         5.44250         0.67816
H          11.02923         4.95756         2.40081

