%chk=CdCqCrCCOC1CCCNNCCCOC1.chk
%NProcShared=20
# opt freq b3lyp/6-31g(2df,p)

Title Card Required 

0  1
C           1.02717         0.04919        -0.04950
C           2.37267         0.04638        -0.07225
C           3.11834        -0.29256        -1.33977
C           3.14731         0.38540         1.18711
C           4.64309         0.31972         0.95142
O           5.38726         0.65088         2.11421
C           6.81406         0.59193         1.88895
C           7.19870        -0.81521         1.36197
C           8.62774        -1.21022         1.71423
C           9.54027        -1.16543         0.48815
N          10.95212        -0.96734         0.83598
N          11.14106         0.30692         1.50599
C          10.99897         1.45565         0.60556
C          10.48465         2.68738         1.36440
C           9.15016         3.18886         0.80787
O           8.09882         2.66215         1.61550
C           7.27644         1.71918         0.93082
H           0.45160        -0.18835        -0.93563
H           0.48461         0.28945         0.85745
H           2.44666        -0.51460        -2.17275
H           3.75276        -1.17466        -1.19496
H           3.75218         0.54459        -1.65381
H           2.88644        -0.31154         1.99463
H           2.88459         1.38880         1.54432
H           4.90964         1.00692         0.14655
H           4.88217        -0.70054         0.64338
H           7.26191         0.74223         2.87814
H           7.04158        -0.86149         0.27404
H           6.52175        -1.56599         1.78760
H           8.62635        -2.23371         2.10870
H           8.98868        -0.57415         2.52804
H           9.20807        -0.40839        -0.22690
H           9.44311        -2.11484        -0.05196
H          11.53702        -1.07262         0.00460
H          12.05094         0.34745         1.97665
H          10.33381         1.24286        -0.23389
H          11.97216         1.67679         0.15449
H          11.23060         3.48268         1.26239
H          10.38060         2.48347         2.43884
H           9.02204         2.95891        -0.25797
H           9.10612         4.27959         0.89070
H           7.80930         1.29058         0.07879
H           6.43404         2.29450         0.53634

