%chk=CdCqCCCrCqCCrCqdSrS.chk
%NProcShared=20
# opt freq b3lyp/6-31g(2df,p)

Title Card Required 

0  1
C           1.03481         0.17645        -0.11445
C           2.38141         0.04006        -0.00303
C           3.02288        -1.15192        -0.66589
C           2.12052        -2.18946        -1.32698
C           2.95435        -3.25868        -2.00192
C           3.27989         1.06083         0.76718
C           2.84814         1.11967         2.27428
C           1.37811         1.42001         2.57594
C           4.88658         1.00993         0.69466
S           5.87909        -0.15872        -0.00622
S           5.81014         2.35716         1.42115
H           0.40644        -0.59105        -0.55397
H           0.47347         1.01796         0.26026
H           3.61547        -1.68612         0.08390
H           3.66203        -0.75865        -1.46506
H           1.48807        -1.71201        -2.08394
H           1.47448        -2.65089        -0.57178
H           3.59240        -2.81923        -2.77575
H           2.29677        -3.99434        -2.46998
H           3.59455        -3.76859        -1.27579
H           3.03833         2.04124         0.32360
H           3.41000         1.90045         2.79353
H           3.12011         0.17597         2.75950
H           1.03936         2.32108         2.05166
H           1.22165         1.57636         3.64660
H           0.72917         0.57888         2.31828
H           4.82794         3.07371         1.95989

