%chk=CdCqCCdSr[SH]1CCNqCrC1.chk
%NProcShared=20
# opt freq b3lyp/6-31g(2df,p)

Title Card Required 

0  1
C           0.90817         0.02423         0.18547
C           2.23968        -0.03076         0.01432
C           2.99245        -0.46665        -1.22028
C           2.13720        -0.88456        -2.40319
S           2.80977        -1.39406        -3.85034
S           3.21894         0.42793         1.34986
C           2.81100        -0.49303         2.77831
C           2.73663         0.53230         3.92120
N           3.03951         1.91155         3.45543
C           4.45086         2.22780         3.69359
C           2.74617         1.97192         2.01663
H           0.20127        -0.24796        -0.58650
H           0.44685         0.34076         1.11356
H           3.64227        -1.31227        -0.95535
H           3.64591         0.35480        -1.54447
H           1.04590        -0.84946        -2.29545
H           4.54317         0.39642         1.11474
H           3.59605        -1.23446         2.93850
H           1.84946        -0.99175         2.63712
H           3.39890         0.22644         4.74165
H           1.72602         0.52215         4.34721
H           4.65822         2.25259         4.76865
H           4.69272         3.22303         3.30414
H           5.13144         1.50406         3.23127
H           3.27452         2.77396         1.49393
H           1.67323         2.12088         1.86937

