%chk=CdCqCrCCCqCdCCCrCCCC.chk
%NProcShared=20
# opt freq b3lyp/6-31g(2df,p)

Title Card Required 

0  1
C           1.04434        -0.00750         0.14785
C           2.38698        -0.00257         0.20915
C           3.14203         0.68353         1.30166
C           3.16729        -0.61681        -0.91570
C           4.69500        -0.52852        -0.82312
C           5.42522        -1.17699        -2.01397
C           5.05500        -0.51789        -3.32586
C           3.85303        -0.65077        -3.91531
C           3.43214         0.12109        -5.11978
C           1.92560         0.01488        -5.30724
C           6.94144        -1.06788        -1.75984
C           7.74750        -1.74633        -2.86126
C           9.24183        -1.59924        -2.62390
C          10.00360        -2.25357        -3.76112
H           0.43856         0.47454         0.90518
H           0.52306        -0.47138        -0.68662
H           2.47459         1.13207         2.03984
H           3.76081         1.48572         0.88442
H           3.79158        -0.03063         1.81675
H           2.83588        -0.05222        -1.78985
H           2.87542        -1.66760        -1.04555
H           5.02818        -1.01824         0.10079
H           4.99678         0.52466        -0.75802
H           5.16420        -2.24353        -2.05576
H           5.79585         0.11394        -3.80754
H           3.10042        -1.28483        -3.45658
H           3.94389        -0.28833        -5.99453
H           3.70656         1.17825        -5.01448
H           1.61210        -1.03409        -5.35618
H           1.62349         0.50557        -6.23568
H           1.38659         0.48632        -4.47690
H           7.18897        -1.53003        -0.79460
H           7.23281        -0.01123        -1.68142
H           7.51108        -1.30746        -3.83650
H           7.47268        -2.80642        -2.91283
H           9.51928        -2.06115        -1.67024
H           9.50850        -0.53714        -2.56668
H           9.75402        -3.31731        -3.82981
H          11.08022        -2.15718        -3.60422
H           9.74996        -1.78302        -4.71732

