%chk=CdCqOrCCNqCrNqOrCqdCrC.chk
%NProcShared=20
# opt freq b3lyp/6-31g(2df,p)

Title Card Required 

0  1
C           1.03443         0.08555        -0.12372
C           2.37613         0.09788        -0.09742
O           3.12391         0.56548        -1.15261
C           3.13182        -0.45486         1.07887
C           4.65391        -0.40846         0.89316
N           5.42604        -1.00563         2.00214
C           5.05606        -2.42584         2.13244
N           6.84660        -0.88864         1.82457
O           7.40134        -0.36442         0.65615
C           7.74159        -1.26212         2.83727
C           7.41042        -1.70820         4.06483
C           9.22542        -1.17367         2.54551
H           0.46643         0.45441        -0.96506
H           0.48174        -0.31340         0.72138
H           2.52671         0.87475        -1.85460
H           2.79434        -1.48968         1.19798
H           2.86206         0.09093         1.99096
H           4.93122         0.64951         0.78433
H           4.90133        -0.92903        -0.04336
H           4.00094        -2.52537         2.40308
H           5.55873        -2.94649         2.94766
H           5.25666        -2.98396         1.21488
H           6.66303        -0.01989         0.14211
H           6.38072        -1.75812         4.39712
H           8.15742        -2.06150         4.76472
H           9.46427        -0.72460         1.57788
H           9.67802        -2.17069         2.56020
H           9.71481        -0.55313         3.30489

