%chk=CdNCNdCSCqCrCCNCNN.chk
%NProcShared=20
# opt freq b3lyp/6-31g(2df,p)

Title Card Required 

0  1
C           1.19038         0.00174        -0.02537
N           2.47341        -0.01431        -0.08123
C           3.17488         0.37172         1.14279
N           4.60367         0.28492         0.86067
C           5.42368         0.59189         1.80351
S           7.14629         0.46771         1.43951
C           8.01407         0.92964         2.99254
C           7.63017        -0.01255         4.13197
C           9.55027         0.88078         2.73928
C          10.36887         1.28622         3.97703
N          11.81244         1.22165         3.74035
C          12.51917         1.59350         4.95081
N          13.94663         1.49999         4.69029
N          14.70603         1.87492         5.86742
H           0.60327        -0.27946        -0.91645
H           0.61097         0.28308         0.86924
H           2.90133        -0.31076         1.95711
H           2.89809         1.39612         1.42084
H           5.09307         0.91775         2.80269
H           7.73405         1.95756         3.25110
H           7.92756        -1.04353         3.91175
H           6.55920         0.01194         4.34317
H           8.12122         0.27671         5.06686
H           9.81429         1.55114         1.91013
H           9.84742        -0.13357         2.43861
H          10.14496         0.60778         4.80557
H          10.08248         2.30016         4.28059
H          12.07856         1.84122         2.98116
H          12.25614         0.90779         5.76586
H          12.25481         2.61458         5.25071
H          14.18735         2.07905         3.88492
H          14.51659         1.23378         6.64390
H          14.48063         2.81452         6.20233

