%chk=CN1CCqC2dCdCNdCCdC3CdCCdCCqdC2rCdC3rC1.chk
%NProcShared=20
# opt freq b3lyp/6-31g(2df,p)

Title Card Required 

0  1
C           1.14834        -0.05442         0.04608
N           2.69750        -0.14378         0.04281
C           3.52558         0.61950         0.97956
C           4.90228        -1.07392         1.42951
C           6.18406        -2.87903         1.68609
C           6.82814        -1.41662         1.29630
C           7.95927        -1.89287         1.22147
N           8.15457        -2.59392         2.47404
C           8.90138        -3.62168         2.35477
C           8.66832        -4.52759         3.49442
C           9.81097        -5.27725         3.44137
C           9.09405        -5.83711         4.85906
C           9.93083        -6.86831         5.30150
C           9.35330        -8.18507         5.78522
C           9.32792        -7.90568         4.21586
C           8.16877        -6.52160         2.88304
C           7.20179        -4.96153         2.13374
C           9.58261        -8.06320         3.41122
C          10.63252        -6.81717         2.98536
C           3.21261        -1.24506         0.95069
H           0.73320         0.71631        -0.63796
H           0.71902         0.13278         1.03117
H           0.72631        -1.01226        -0.31571
H           2.64294         1.24246         1.75342
H           3.52518         1.88603         0.55679
H           4.87555        -0.17115         2.28886
H           8.44853        -1.81641         0.26084
H           9.32392        -3.76498         1.34918
H           7.35311        -4.87709         3.80502
H           8.05949        -6.63648         4.92784
H          11.14243        -7.34590         4.65039
H           8.62397        -8.93466         6.24930
H          10.88951        -8.59870         4.50793
H           6.95312        -3.75567         1.20466
H           9.93948        -9.31927         4.58667
H          10.84125        -5.85622         2.30043
H           2.56613        -1.42836         1.78830
H           3.42945        -2.14241         0.49780

