%chk=CNNCC1dCNCqdOrCNdCC1.chk
%NProcShared=20
# opt freq b3lyp/6-31g(2df,p)

Title Card Required 

0  1
C           1.13602        -0.02022         0.06098
N           2.61764         0.00602         0.11139
N           3.03418         0.55638         1.52751
C           4.51995         0.63635         1.70578
C           5.48312         1.11699         3.15085
C           6.69780         0.90406         2.64825
N           7.49892         1.06783         3.62431
C           8.82339         1.37295         3.78424
O           9.72068         1.21355         3.15185
C           8.50857         1.99321         5.05875
N           8.94109         2.31647         6.25953
C           7.31927         2.35740         6.15344
C           5.75507         1.95806         4.89293
H           0.76214        -0.38614        -0.90762
H           0.72340         0.98394         0.20735
H           0.72674        -0.68538         0.82903
H           2.92265         0.61133        -0.66230
H           2.70890        -0.17994         2.15464
H           4.89917         1.19490         0.81227
H           4.87727        -0.39124         1.40005
H           7.10458         0.62490         1.70492
H           7.06920         0.79101         4.48786
H           8.42357         0.92240         5.80404
H           8.48763         3.20788         4.96521
H           7.62065         2.73366         7.16875
H           5.10004         2.81418         4.63852
H           5.05899         1.22157         5.36269

