%chk=CNqCrCC1dCqCCNdNrSCdCNdN1.chk
%NProcShared=20
# opt freq b3lyp/6-31g(2df,p)

Title Card Required 

0  1
C           1.04199        -0.05004         0.01012
N           2.50928        -0.10235        -0.06060
C           2.99061         0.85202        -1.07563
C           3.09248        -0.00576         1.30818
C           4.59364         0.36114         1.40282
C           5.02246         1.65275         1.31151
C           4.12145         2.93028         1.17013
C           2.64428         2.84437         1.47984
N           1.79795         3.97857         1.09240
N           0.61109         3.56769         1.07482
S           6.66513         2.24110         1.22738
C           7.74032         0.94792         1.33684
C           7.55735        -0.34503         1.51550
N           6.45882        -1.12247         1.65885
N           5.27314        -0.81743         1.58853
H           0.60123        -0.24581        -0.97187
H           0.65851         0.92140         0.34221
H           0.65489        -0.80101         0.70529
H           2.66519         0.54507        -2.07342
H           4.08225         0.90450        -1.11600
H           2.61719         1.87878        -0.98011
H           2.90927        -0.96543         1.82062
H           2.51867         0.62183         1.99163
H           4.27010         3.32297         0.15337
H           4.51020         3.68951         1.86009
H           2.48407         2.59038         2.52985
H           2.24801         2.06819         0.86898
H          -0.08955         4.26616         0.81709
H           8.77772         1.27054         1.26132
H           8.47042        -0.93730         1.57662

