%chk=CNqCCCCCCSCqNrCOrNNdO.chk
%NProcShared=20
# opt freq b3lyp/6-31g(2df,p)

Title Card Required 

0  1
C           1.02772        -0.00175        -0.03009
N           2.49596         0.04051         0.03415
C           2.94435         0.82874         1.20285
C           2.46845         2.27641         1.18227
C           2.98035         3.01752         2.40843
C           2.46599         4.45206         2.39157
C           2.95907         5.20725         3.61799
C           2.45552         6.64988         3.62143
S           3.05232         7.42848         5.15394
C           2.43420         9.13156         4.99867
N           0.97881         9.15108         4.96923
C           2.96563         9.91715         6.23057
O           2.54893        11.28413         6.25244
N           2.99140        -1.30392         0.25844
N           4.22866        -1.46838        -0.12068
O           4.53654        -2.65232         0.00097
H           0.59660         0.99734        -0.15920
H           0.59056        -0.44574         0.87170
H           0.68910        -0.56920        -0.90345
H           4.04316         0.84577         1.22780
H           2.61248         0.34595         2.13259
H           1.37564         2.32946         1.19877
H           2.81333         2.77161         0.26682
H           4.07663         3.00379         2.42705
H           2.63380         2.50738         3.31667
H           1.36892         4.44856         2.37240
H           2.80577         4.95352         1.47781
H           4.05629         5.18514         3.63140
H           2.61006         4.68121         4.51674
H           1.36160         6.65181         3.60230
H           2.82893         7.18643         2.74315
H           2.81632         9.59848         4.08427
H           0.63873         8.70334         5.81918
H           0.63392         8.60275         4.18960
H           4.06129         9.91641         6.24647
H           2.61583         9.46237         7.16542
H           2.74689        11.66523         5.38174
H           2.42019        -2.06175        -0.11388

