%chk=COC1dc2ncccc2dCCN1CCCO.chk
%NProcShared=20
# opt freq b3lyp/6-31g(2df,p)

Title Card Required 

0  1
C           0.94835        -0.45835         0.55234
O           2.28081        -0.19343         1.26330
C           3.06951         0.99971         0.94174
C           4.45422         1.04959         0.92817
N           5.18976         2.25163         0.87718
C           6.48307         2.12864         0.84090
C           7.25772         0.85294         0.80647
C           6.56046        -0.19407         0.28855
C           5.13948         0.04656         0.08829
C           4.38615        -0.48474        -0.91350
C           2.93642         0.09353        -1.20538
N           2.55532         1.50608        -0.24714
C           1.10385         2.18637         0.18233
C           0.77533         3.56076         0.92516
C          -0.79897         3.65065         1.14556
O          -1.25418         4.92665         1.59918
H           0.88311        -1.48311         0.17492
H           0.76001         0.10300        -0.38971
H           0.10198        -0.24003         1.20441
H           7.11644         3.03866         0.79145
H           8.29316         0.83756         1.09931
H           7.04654        -1.13242         0.07012
H           4.74728        -1.39718        -1.38852
H           2.43580        -0.83223        -0.88316
H           2.69924         0.16778        -2.26588
H           0.78771         1.61390         1.06277
H           0.39691         2.07763        -0.63455
H           1.09657         4.44804         0.37869
H           1.20365         3.64144         1.94101
H          -1.17575         2.89754         1.85459
H          -1.31742         3.47219         0.19826
H          -1.08274         5.01337         2.55285

