%chk=COC1CqdOrCCqOrCCC1C.chk
%NProcShared=20
# opt freq b3lyp/6-31g(2df,p)

Title Card Required 

0  1
C           0.95262        -0.02279         0.05503
O           2.37352         0.00324         0.07534
C           2.86973        -0.08470         1.40744
C           3.37054        -1.50164         1.71938
O           3.36364        -2.42067         0.89614
C           3.84936        -1.73759         3.13160
C           5.24078        -1.14126         3.28566
O           6.00203        -1.92050         4.20469
C           5.22701         0.31124         3.77322
C           4.18026         1.21878         3.12821
C           3.98077         0.96825         1.62002
C           3.63232         2.28442         0.92148
H           0.61373         0.04477        -0.97989
H           0.56055         0.83853         0.60753
H           0.58317        -0.95146         0.50010
H           2.05119         0.11023         2.11307
H           3.84446        -2.81528         3.32627
H           3.12818        -1.29963         3.83130
H           5.77911        -1.18938         2.33095
H           5.54212        -1.92245         5.06088
H           6.22259         0.74021         3.59912
H           5.09258         0.34164         4.86230
H           4.46466         2.26018         3.32051
H           3.22663         1.08566         3.65752
H           4.91985         0.61917         1.17035
H           2.68666         2.68624         1.29764
H           3.54498         2.14397        -0.16094
H           4.41821         3.02839         1.08562

