%chk=COCCC1CCdCqCrCOCCqCOrC1O.chk
%NProcShared=20
# opt freq b3lyp/6-31g(2df,p)

Title Card Required 

0  1
C           0.99880         0.23250         0.12132
O           2.42699         0.37493         0.12862
C           2.91824        -0.49012        -0.87993
C           4.43972        -0.64809        -0.92704
C           4.92111        -1.56301        -2.10769
C           5.42908        -0.66569        -3.26025
C           4.29415        -0.20364        -4.12907
C           4.00946        -0.71685        -5.33148
C           2.71873        -0.37309        -6.03222
C           4.93635        -1.67029        -6.04744
O           4.59643        -3.02257        -5.77819
C           5.11114        -3.58250        -4.56423
C           4.00348        -3.71489        -3.51521
C           4.10828        -5.02828        -2.72818
O           4.24712        -6.15081        -3.57211
C           3.79815        -2.56831        -2.51092
O           3.27464        -3.16265        -1.30370
H           0.57715         0.84838         0.91162
H           0.70643        -0.81306         0.29623
H           0.60336         0.54870        -0.85100
H           2.54356        -0.14336        -1.84613
H           2.44940        -1.44189        -0.65504
H           4.79125        -1.08024         0.01848
H           4.90997         0.34029        -0.98190
H           5.78341        -2.13694        -1.73707
H           6.18237        -1.20621        -3.83091
H           5.98882         0.19993        -2.89142
H           3.59771         0.49748        -3.66662
H           2.06559         0.24607        -5.40462
H           2.15582        -1.27905        -6.28082
H           2.91852         0.18272        -6.95197
H           5.99336        -1.47704        -5.83607
H           4.83837        -1.51166        -7.12677
H           6.01919        -3.10361        -4.19582
H           5.45367        -4.58118        -4.84935
H           3.05974        -3.77308        -4.08236
H           3.19551        -5.20080        -2.14303
H           4.95675        -4.98081        -2.03643
H           3.49506        -6.11218        -4.18926
H           2.95951        -1.99034        -2.91648
H           4.01210        -3.42945        -0.72769

