%chk=COCCqNNdNNNCNdOrCqCrOCO.chk
%NProcShared=20
# opt freq b3lyp/6-31g(2df,p)

Title Card Required 

0  1
C           0.87523         0.09216        -0.08960
O           2.29260         0.10088        -0.14030
C           2.82389        -1.10064         0.41710
C           4.36785        -1.08804         0.46083
N           4.83542         0.02425         1.31746
N           4.55248         1.31465         0.96231
N           5.03979         2.13076         1.77296
N           4.71131         3.40022         1.39797
N           5.05392         4.45953         2.24997
C           4.60629         5.77932         1.78870
N           5.09353         6.90069         2.65819
O           4.71999         8.00300         2.25278
C           4.87168        -2.49943         0.94952
C           4.33000        -3.64041         0.06306
O           6.31161        -2.53747         0.93412
C           6.85082        -3.73518         1.47783
O           8.25736        -3.63089         1.51007
H           0.51612         1.05067        -0.46737
H           0.52775        -0.03764         0.94026
H           0.48462        -0.71103        -0.72158
H           2.45819        -1.91025        -0.21702
H           2.43482        -1.24804         1.43319
H           4.77747        -0.88876        -0.53789
H           5.52764        -0.09415         2.05056
H           3.99250         3.46301         0.67614
H           6.07423         4.47753         2.29588
H           3.51207         5.84357         1.79540
H           4.97262         5.99407         0.77786
H           4.53684        -2.64967         1.98420
H           4.70004        -3.53508        -0.96280
H           3.24096        -3.69770         0.04933
H           4.64881        -4.62514         0.41560
H           6.60879        -4.60510         0.86115
H           6.48523        -3.89829         2.49675
H           8.51842        -3.59333         0.57493

