%chk=COCC1CCCqOOrCCqCdCdOrCqdOrO1.chk
%NProcShared=20
# opt freq b3lyp/6-31g(2df,p)

Title Card Required 

0  1
C           0.90931         0.03244        -0.01555
O           2.32768        -0.06357        -0.02866
C           2.74721        -1.30526        -0.64658
C           4.27096        -1.36351        -0.58899
C           4.83479        -1.95032         0.69457
C           6.29602        -1.52806         0.92564
C           6.59395        -0.01000         0.74378
O           5.40316         0.75362         0.99370
O           5.64929         2.14635         0.65658
C           7.30073         0.22599        -0.61892
C           6.48546        -0.00827        -1.92752
C           5.30899         0.91149        -2.17888
C           4.33577         0.71557        -3.01077
O           3.36938         0.52272        -3.66027
C           6.16859        -1.51118        -2.07411
O           7.03553        -2.30625        -2.43264
O           4.91624        -1.94684        -1.73526
H           0.60643         0.97819         0.44483
H           0.49946        -0.79069         0.57454
H           0.52230        -0.00025        -1.03756
H           2.39182        -1.30713        -1.68003
H           2.31333        -2.12970        -0.07982
H           4.50447        -0.32952        -0.55393
H           4.77154        -3.04342         0.64866
H           4.23962        -1.60848         1.54694
H           6.95522        -2.12786         0.28459
H           6.57702        -1.82082         1.94215
H           7.28281         0.29158         1.53924
H           4.72185         2.36126         0.41753
H           8.18094        -0.44080        -0.63689
H           7.72177         1.23898        -0.63202
H           7.16987         0.23428        -2.75511
H           4.97259         1.46532        -1.32111

