%chk=COCCdC1CdC1CC1CdCCqdNrCS1.chk
%NProcShared=20
# opt freq b3lyp/6-31g(2df,p)

Title Card Required 

0  1
C           1.02983        -0.05180        -0.09161
O           2.44692        -0.10897        -0.21993
C           2.96097         0.38251         0.98557
C           4.43285         0.38966         1.02492
C           4.98501         0.81381         2.11404
C           6.04439         1.11280         2.85691
C           4.86166         1.34130         3.48678
C           3.31962         1.35921         3.63965
C           2.54728         1.78291         4.89488
C           3.42261         1.56129         6.05029
C           4.04552         2.49336         6.76187
C           3.78337         3.92412         6.54027
N           4.40131         4.82455         7.23512
C           2.78293         4.44438         5.54906
S           1.76911         3.35882         4.60525
H           0.61316        -0.42249        -1.02005
H           0.70085         0.98097         0.08391
H           0.69727        -0.67704         0.74739
H           2.59147        -0.26951         1.78467
H           2.59868         1.41054         1.10136
H           5.02042         0.06463         0.17680
H           7.09415         1.08044         2.71917
H           2.94375         0.33534         3.53500
H           2.91009         1.98761         2.84556
H           1.64453         1.17419         5.05481
H           3.65701         0.50999         6.21955
H           4.78133         2.20058         7.49969
H           5.04759         4.40828         7.90586
H           3.30188         5.11403         4.85971
H           2.04785         4.99842         6.13442

