%chk=CSC1dCCdCCdCCdC1SCSCdN.chk
%NProcShared=20
# opt freq b3lyp/6-31g(2df,p)

Title Card Required 

0  1
C           0.87289        -0.01666         0.04716
S           2.61553         0.19094         0.45326
C           3.22629         1.55679        -0.53068
C           2.41161         2.61102        -0.35429
C           2.35617         4.02208        -0.48815
C           3.20602         4.97680        -0.85286
C           4.49539         4.93319        -1.43538
C           5.29903         3.93683        -1.80710
C           5.30988         2.49537        -1.70345
C           4.56930         1.47470        -1.18509
S           5.48094        -0.10567        -1.44678
C           4.60004        -1.49887        -0.72359
S           5.39833        -3.11371        -0.89759
C           4.21332        -4.11810        -0.08069
N           4.45737        -5.38056         0.01956
H           0.57550        -1.02835         0.33917
H           0.64341         0.11923        -1.01315
H           0.28581         0.67749         0.65234
H           1.46717         2.38227         0.13880
H           1.41234         4.40532        -0.08992
H           2.83574         5.99339        -0.70630
H           4.86307         5.94293        -1.64222
H           6.20258         4.30470        -2.30974
H           6.25332         2.19452        -2.18387
H           3.62803        -1.58013        -1.21502
H           4.54175        -1.35649         0.35530
H           3.27453        -3.71640         0.34114
H           5.36724        -5.55459        -0.42480

