%chk=CSc1cc2cqs1rCdCCdCSCdCCdC2.chk
%NProcShared=20
# opt freq b3lyp/6-31g(2df,p)

Title Card Required 

0  1
C           1.07646         0.03411         0.08854
S           2.87627         0.10370         0.04637
C           3.38699         1.02907         1.44572
C           3.70395         2.19046         2.67169
C           4.54781         1.70643         4.61534
C           4.19797         1.13786         3.50932
S           4.03947         0.01461         2.49311
C           4.70377         0.77961         4.81601
C           5.13017        -0.57013         5.48108
C           5.63072         0.16220         7.62663
C           5.49535        -1.02996         6.45303
S           6.33593        -0.16852         8.87323
C           6.40679        -1.90944         7.89553
C           6.91674        -2.19769         9.34865
C           6.39746        -1.16295         7.51422
C           5.61679         0.56308         6.30524
H           0.69883        -0.54887        -0.75962
H           0.69290         1.04445         0.00229
H           0.69699        -0.41884         1.00158
H           3.08580         2.89626         1.36438
H           5.03942         1.86008         6.30201
H           4.97657        -1.05691         4.53760
H           5.74523         1.20580         7.74434
H           5.84004        -2.16014         6.36848
H           6.72205        -3.47301         8.07349
H           7.57181        -2.37975        10.79434
H           6.89495        -2.45759         8.91200
H           4.82610         2.04128         5.34429

