%chk=CSc1cc1d[SH]CCCCO.chk
%NProcShared=20
# opt freq b3lyp/6-31g(2df,p)

Title Card Required 

0  1
C           0.95677        -0.19517        -0.23725
S           2.75651        -0.16173        -0.17711
C           3.09373         0.93003         0.98551
C           4.03318         1.51700         1.61074
C           2.67671         1.87977         2.10194
S           0.91514         1.84554         1.84831
C          -0.00164         2.84246         3.01503
C          -1.52886         2.62186         2.78015
C          -2.37535         3.49775         3.70898
C          -3.87802         3.30762         3.50917
O          -4.59466         4.16286         4.39350
H           0.60309        -0.87327        -1.00900
H           0.55670         0.79625        -0.47743
H           0.55413        -0.56391         0.71156
H           5.09552         1.50577         1.61618
H           0.62740         0.64971         2.31311
H           0.23512         3.89175         2.83161
H           0.25114         2.56216         4.03882
H          -1.80087         1.56736         2.93728
H          -1.80070         2.84461         1.73716
H          -2.12865         4.55410         3.54987
H          -2.12465         3.27927         4.75338
H          -4.18472         2.27542         3.70626
H          -4.17582         3.56526         2.48805
H          -4.36040         3.91521         5.30424

