%chk=CSCqCdCCCOrNqOrCO.chk
%NProcShared=20
# opt freq b3lyp/6-31g(2df,p)

Title Card Required 

0  1
C           1.09408         0.03585         0.02145
S           2.91159        -0.06201         0.01532
C           3.41206         1.15385         1.35350
C           2.86200         0.68174         2.67365
C           1.57387         0.78523         3.05617
C           1.06078         0.27189         4.36001
C          -0.46543         0.23256         4.35569
O          -0.95346        -0.18081         5.62223
N           4.89973         1.17912         1.39421
O           5.32952         1.67991         0.08386
C           5.40241         2.16220         2.35246
O           6.82058         2.15305         2.38029
H           0.70667        -0.57690        -0.79828
H           0.73596         1.05946        -0.12315
H           0.66753        -0.39434         0.93036
H           3.02677         2.14812         1.09151
H           3.57020         0.27936         3.39238
H           0.84911         1.21540         2.37465
H           1.41073         0.91952         5.17085
H           1.44826        -0.73514         4.56305
H          -0.84456        -0.45447         3.59029
H          -0.87257         1.22730         4.14328
H          -0.60488        -1.07276         5.79093
H           5.08316         0.93265        -0.50020
H           5.09087         1.91949         3.37250
H           5.06349         3.17786         2.12666
H           7.05375         1.21178         2.43049

