%chk=NC1dCCdCCdCCdNNdC2CdC1CdN2.chk
%NProcShared=20
# opt freq b3lyp/6-31g(2df,p)

Title Card Required 

0  1
N           4.40250         2.07308        -0.18830
C           6.27200         3.24003        -0.68301
C           4.71476         2.08646        -0.76284
C           5.58972         0.87996        -1.10996
C           5.50335         1.94783        -2.15369
C           7.13943         1.54819        -1.68439
C           7.72785         2.60125        -2.06790
C           9.00409         2.43577        -1.29491
N           9.53088         2.73994        -2.64206
N          11.02672         3.42972        -2.50656
C          11.50848         4.87665        -3.03360
C          10.25518         4.38941        -1.71694
C           8.27716         4.24404        -1.32786
C           9.89616         5.51072        -2.30915
N          10.69766         5.81663        -3.64313
H           3.37415         0.86224        -0.15920
H           3.00332         1.30393        -0.36325
H           3.11864         2.11922        -1.22560
H           5.29552         0.21283        -0.14755
H           4.66726         3.18376        -1.83238
H           7.51052         1.13358        -0.66601
H           7.03212         3.73143        -2.25697
H           9.90490         1.99439        -1.14867
H          11.98383         4.35509        -1.98639
H          11.07431         6.58640        -2.94786

