%chk=NCCC1dC2CNCqdOrOCCC1C2.chk
%NProcShared=20
# opt freq b3lyp/6-31g(2df,p)

Title Card Required 

0  1
N           0.75777         0.15066        -0.05151
C           2.20166         0.10810        -0.18675
C           2.66225        -1.07226        -1.04712
C           4.28214        -0.94831        -1.41877
C           5.41708        -1.96728        -1.62587
C           7.07784        -2.08332        -1.14603
N           7.11358        -2.38126         0.33276
C           7.18135        -1.43322         1.32370
O           7.94290        -0.45500         1.28950
O           6.21511        -1.58885         2.28995
C           4.93563        -0.87593         2.12905
C           4.97194         0.11914         1.00579
C           5.10232        -0.77620        -0.20176
C           4.60586        -2.62007        -0.53564
H           0.52066         0.97366         0.50173
H           0.47280        -0.65191         0.51189
H           2.54159        -0.00329         0.85143
H           2.60775         1.04325        -0.58251
H           2.10748        -1.21203        -1.96618
H           2.47835        -1.95163        -0.39750
H           7.57944        -1.14328        -1.36713
H           7.47190        -2.95221        -1.67224
H           7.49288        -3.27271         0.62700
H           4.62896        -0.39522         3.06278
H           4.16851        -1.62328         1.89142
H           5.85332         0.77395         1.12644
H           4.18513         0.86838         0.95868
H           5.92929        -0.16113        -0.63384
H           3.87969        -3.14847        -1.22069
H           5.01263        -3.47524         0.00969

