%chk=NdC1CdCCdCC1qSrSSS.chk
%NProcShared=20
# opt freq b3lyp/6-31g(2df,p)

Title Card Required 

0  1
N           0.82968        -0.08917        -0.16310
C           2.12610         0.00974        -0.08578
C           2.94656        -1.23104        -0.04697
C           4.28505        -1.15619        -0.04667
C           5.00079         0.08862        -0.04691
C           4.35481         1.26387        -0.05517
C           2.84365         1.39412        -0.08831
S           2.45796         2.24188        -1.67189
S           2.36666         2.39717         1.40201
S           0.30941         2.39951         1.49285
S          -0.18538         3.21063         3.30910
H           0.50134        -1.05469        -0.13138
H           2.43144        -2.18104        -0.04981
H           4.87433        -2.06885        -0.04473
H           6.08810         0.05350        -0.03753
H           4.94002         2.18225        -0.05274
H           2.92399         1.25522        -2.45587
H          -1.52431         3.16906         3.20495

