%chk=NdC1CdCCdCCdCCdCNSCSC1.chk
%NProcShared=20
# opt freq b3lyp/6-31g(2df,p)

Title Card Required 

0  1
N           2.76897        -0.02816        -0.41618
C           4.61436        -0.04206        -0.75488
C           3.17569        -0.60965        -1.44485
C           4.43305        -0.79481        -1.61869
C           5.02673        -1.21799        -2.66722
C           6.23127        -1.36670        -2.87289
C           6.76076        -1.75546        -3.92211
C           7.96238        -2.05766        -3.81024
C           8.72590        -2.36948        -4.96362
C           9.94796        -2.49365        -4.73723
N          10.96974        -2.88459        -5.86072
S          13.20450        -2.59543        -5.48796
C          11.46412        -1.87390        -5.04841
S           9.44574        -0.83350        -3.03794
C           7.02181        -0.26799        -1.46219
H           1.24378        -0.27409        -0.72458
H           2.47315        -0.96073        -2.19489
H           5.51767        -0.90834        -1.33106
H           4.49126        -1.53878        -3.39774
H           7.10000        -1.20139        -2.51038
H           6.53116        -2.15204        -4.74125
H           8.25048        -1.63089        -2.33704
H           8.66261        -2.73042        -5.92093
H          10.96450        -1.87057        -3.72431
H          10.87954        -3.19925        -6.86829
H          12.24546        -2.30986        -6.52868
H          12.31909        -3.16374        -6.00610
H           5.98326         0.54757        -0.52800
H           6.11122        -0.38812        -0.05941

