%chk=NdC1CdCCdCC2qCC2rNCdC1.chk
%NProcShared=20
# opt freq b3lyp/6-31g(2df,p)

Title Card Required 

0  1
N           2.42519         0.55330        -0.31708
C           3.46793        -0.20450        -0.56831
C           3.04322        -1.58311        -0.47730
C           4.12667        -2.10396         0.12093
C           4.71399        -3.12326        -0.61047
C           6.01320        -3.06157        -0.31293
C           7.00443        -3.38967        -1.22215
C           7.30937        -4.83042        -0.76838
C           6.97586        -4.55935        -2.20485
N           7.53680        -1.94919        -1.38708
C           6.56534        -0.58924        -1.20079
C           5.25252         0.04006        -0.90579
H           1.56733        -0.06549        -0.15415
H           2.27891        -2.06350        -1.02612
H           4.76759        -1.40719         0.68067
H           4.36322        -3.57122        -1.53051
H           6.39405        -2.39140         0.45890
H           6.49602        -5.34850        -0.21126
H           8.21056        -5.34930        -0.47692
H           6.00663        -4.89928        -2.57206
H           7.73661        -4.91439        -2.89766
H           8.23540        -1.82271        -0.61684
H           7.42483         0.00982        -1.55271
H           5.27144         1.07980        -0.47332

