%chk=NSCCdCS1dCCdCCdC1SCCt[SH].chk
%NProcShared=20
# opt freq b3lyp/6-31g(2df,p)

Title Card Required 

0  1
N           1.01460        -0.05562         0.06598
S           2.66469        -0.03911         0.17720
C           3.05643        -1.84784         0.21762
C           4.51444        -2.06228         0.52458
C           5.27040        -3.05581         0.04467
S           7.00943        -2.81274        -0.36517
C           7.69503        -4.37698         0.06993
C           8.50780        -4.60019         1.16626
C           8.87092        -3.60277         2.07615
C           8.46031        -2.26088         1.96337
C           7.63348        -1.77302         0.93977
S           7.20437        -0.03794         0.83518
C           6.13339         0.01337        -0.71011
C           5.66359         1.44859        -0.88285
S           5.18370         2.91460        -1.05931
H           0.65255         0.90084         0.02465
H           0.60376        -0.45313         0.90980
H           2.81466        -2.24592        -0.77355
H           2.46651        -2.30952         1.00138
H           4.94922        -1.18962         1.00100
H           4.79017        -3.94364        -0.35405
H           7.46869        -5.19428        -0.60660
H           8.87309        -5.61495         1.32276
H           9.50696        -3.89040         2.91525
H           8.81707        -1.57325         2.73423
H           5.30788        -0.63061        -0.97058
H           6.85640        -0.14104        -1.52366
H           4.35469         3.03792        -0.01157

