%chk=OCC1CCCdC2SCdCCdC2CCCCCC1.chk
%NProcShared=20
# opt freq b3lyp/6-31g(2df,p)

Title Card Required 

0  1
O           0.46020        -0.10969         0.00349
C           1.83699        -0.26456        -0.09440
C           2.34667        -1.38614        -0.95075
C           2.88598        -0.84419        -2.30120
C           2.58505         0.45730        -3.13465
C           2.51203         1.76797        -2.42033
C           3.53081         2.26154        -1.71775
S           5.51309         2.16651        -2.38744
C           5.48463         0.56449        -1.90996
C           4.92026         0.62942        -0.70387
C           4.37141         2.16426        -0.11551
C           3.18929         2.30878         0.05593
C           3.75538         2.95094         1.57611
C           4.77948         1.86222         2.13496
C           3.97230         0.58549         2.43037
C           4.51397        -0.75196         1.89878
C           3.53042        -1.87828         1.49588
C           3.38745        -2.23955        -0.05921
H           0.39607         0.71196         0.52738
H           2.23963        -0.23623         0.88603
H           2.18264         0.65642        -0.44696
H           1.55699        -2.04738        -1.27499
H           3.50553        -1.56911        -2.84200
H           3.56914        -0.32635        -1.74390
H           1.66688         0.29919        -3.67253
H           3.42583         0.65846        -3.81648
H           1.55879         2.11493        -2.05917
H           5.23690        -0.19415        -2.68086
H           5.38502        -0.27863        -0.35493
H           3.61715         3.27622        -0.38006
H           2.98845         3.12029         2.33906
H           4.29396         3.92283         1.45780
H           5.35654         2.23016         2.96969
H           5.58652         1.69253         1.39923
H           2.93590         0.78529         2.15392
H           3.91962         0.49386         3.50381
H           5.35047        -1.08704         2.50984
H           5.12498        -0.61764         1.07318
H           2.53745        -1.68428         1.90778
H           3.85939        -2.76537         2.03856
H           2.94769        -3.24451        -0.08450
H           4.38821        -2.37334        -0.50512

