%chk=OCCCCCCCdNNNCCdCdNOO.chk
%NProcShared=20
# opt freq b3lyp/6-31g(2df,p)

Title Card Required 

0  1
O           0.99203        -0.10470        -0.00204
C           2.41059        -0.09371        -0.02030
C           2.92725        -0.81961         1.21062
C           4.45158        -0.83140         1.23064
C           4.97864        -1.55942         2.46524
C           6.50974        -1.57141         2.48587
C           7.05129        -2.29897         3.72063
C           8.57315        -2.32646         3.76021
N           9.22085        -2.91518         4.72387
N          10.55925        -2.88078         4.62244
N          11.27241        -3.46621         5.71319
C          12.73357        -3.35332         5.50895
C          13.57079        -3.95598         6.61238
C          14.87811        -3.95450         6.64402
N          16.05443        -4.01823         6.62917
O          16.68091        -3.09327         7.47136
O          18.12667        -3.21908         7.35994
H           0.69436         0.36577        -0.79918
H           2.75463         0.94549        -0.02776
H           2.75477        -0.59001        -0.93331
H           2.53703        -1.84507         1.22450
H           2.53702        -0.33551         2.11473
H           4.82627         0.19953         1.22046
H           4.82628        -1.32142         0.32355
H           4.59744        -2.58791         2.47093
H           4.59735        -1.06674         3.36801
H           6.88017        -0.53876         2.46697
H           6.88021        -2.05490         1.57315
H           6.68243        -3.33083         3.72680
H           6.68410        -1.80477         4.62674
H           9.09294        -1.82427         2.92334
H          11.03808        -2.35112         3.89264
H          11.01014        -4.45248         5.76793
H          12.99519        -2.28995         5.44631
H          13.00652        -3.83130         4.56011
H          13.05325        -4.46441         7.41898
H          18.34325        -2.52066         8.00039

