%chk=OCCCNCCCCCPqOOrOCCS.chk
%NProcShared=20
# opt freq b3lyp/6-31g(2df,p)

Title Card Required 

0  1
O           0.91006        -0.07501        -0.00050
C           2.32978        -0.06316         0.01483
C           2.84841        -1.39252        -0.51155
C           4.37141        -1.39908        -0.51512
N           4.87375        -2.67679        -1.01315
C           6.33363        -2.67448        -1.01593
C           6.85642        -4.00674        -1.53577
C           8.38809        -4.01430        -1.52922
C           8.90214        -5.34429        -2.06002
C          10.43440        -5.43202        -2.10431
P          10.92645        -7.14065        -2.63872
O          10.48297        -7.05051        -4.19442
O           9.09607        -7.45141        -4.33978
O          12.54154        -7.02081        -2.83294
C          13.15197        -8.25717        -3.24884
C          14.67734        -8.19141        -3.20215
S          15.40396        -9.73815        -3.84985
H           0.61453         0.77939         0.35434
H           2.66792         0.10650         1.04237
H           2.67675         0.76408        -0.61299
H           2.45632        -1.56546        -1.52197
H           2.45900        -2.21026         0.10850
H           4.73618        -1.23239         0.50564
H           4.73973        -0.57931        -1.14397
H           4.52308        -2.84468        -1.95655
H           6.70805        -2.51519         0.00203
H           6.71112        -1.86347        -1.65006
H           6.48794        -4.18248        -2.55522
H           6.47813        -4.82810        -0.91301
H           8.75757        -3.84889        -0.51097
H           8.76265        -3.19621        -2.15560
H           8.48946        -5.47509        -3.06678
H           8.49642        -6.15658        -1.44218
H          10.84422        -5.23887        -1.10710
H          10.83754        -4.67298        -2.78402
H           9.05765        -7.33210        -5.30727
H          12.83063        -8.47460        -4.27559
H          12.81939        -9.06877        -2.58707
H          15.02993        -8.04104        -2.17668
H          15.05222        -7.35514        -3.79966
H          14.82854       -10.57910        -2.97515

