%chk=Od[SH]C1dCCdCCdCCdCCdNCdCCdCCdC1.chk
%NProcShared=20
# opt freq b3lyp/6-31g(2df,p)

Title Card Required 

0  1
O           2.42917        -0.59615        -0.97346
S           4.05436        -1.37759        -2.04409
C           5.79181        -2.13303        -4.30039
C           5.35877        -1.31922        -2.53344
C           5.17566        -1.98854        -3.52199
C           6.78840        -1.69171        -2.93691
C           7.54028        -2.26693        -3.99948
C           8.63291        -2.52603        -4.48666
C           9.24732        -3.29361        -5.65023
C          10.49144        -3.35754        -5.92335
C          10.97760        -4.23366        -6.94401
N          12.24584        -4.03723        -7.16088
C          12.47690        -5.35654        -7.86302
C          13.60128        -5.02059        -8.35764
C          12.93796        -5.05361        -9.73677
C          11.41214        -4.00270        -8.88523
C           9.34389        -3.40919        -7.50009
C           7.60531        -2.85332        -6.12935
H           3.48794        -0.94349        -0.10014
H           5.38937        -0.62774        -1.10387
H           4.14820        -2.18872        -3.91606
H           7.25323        -1.24661        -2.20574
H           6.99860        -2.72005        -4.75128
H           9.09537        -2.09966        -3.80465
H           8.28015        -3.93849        -6.82689
H          10.92738        -2.86865        -5.26039
H           9.83086        -4.83320        -8.10185
H          11.65492        -5.63586        -9.19348
H          14.45651        -4.49779        -8.27894
H          13.34939        -6.02162       -11.09421
H          13.09097        -4.38339        -9.61962
H          10.73040        -4.23848        -8.42273
H           6.06996        -3.06290        -5.70196

