%chk=OdC1OCqCCCCOCOrC2OC2O1.chk
%NProcShared=20
# opt freq b3lyp/6-31g(2df,p)

Title Card Required 

0  1
O           1.20125         0.17991        -0.26157
C           2.39361         0.10024        -0.07350
O           2.99557        -1.05425         0.35371
C           3.92728        -0.90714         1.43928
C           3.14659        -0.52613         2.67973
C           4.06786        -0.44988         3.87371
C           3.32198         0.20853         5.01167
C           4.21753         0.27074         6.22450
O           3.49273         0.86713         7.28857
C           4.29737         0.91178         8.44945
O           3.54339         1.46517         9.50266
C           4.93373         0.09561         1.04499
O           5.24726         1.34820         1.47278
C           4.03170         1.56611         0.81429
O           3.30991         1.10137        -0.34269
H           4.38653        -1.89503         1.57802
H           2.31542        -1.22141         2.84409
H           2.65444         0.44139         2.54193
H           4.96506         0.14140         3.65515
H           4.41397        -1.45509         4.13754
H           2.40296        -0.34578         5.23219
H           3.00869         1.22221         4.72633
H           5.10832         0.87063         6.00123
H           4.52939        -0.74277         6.50150
H           5.18529         1.52802         8.27367
H           4.60102        -0.10043         8.73390
H           3.31555         2.35810         9.19747
H           5.72365        -0.32894         0.44675
H           3.38735         2.08757         1.51828

