%chk=OdC1CCCdCCdCCdCCdCCdCCdCNdCCdC2CdCCdC12.chk
%NProcShared=20
# opt freq b3lyp/6-31g(2df,p)

Title Card Required 

0  1
O          10.15769         1.86015        -3.47012
C          11.70900         2.36643        -4.55061
C           8.43900         1.58119        -3.12051
C           5.87368         0.89230        -1.70716
C           6.34191         1.74691        -3.05144
C           7.25141         1.21497        -1.92353
C           7.36792         2.36052        -3.86641
C           8.65181         2.40386        -3.99917
C           9.46942         2.69028        -4.67228
C          10.79648         3.19435        -5.11268
C          11.82118         3.35139        -5.86046
C          12.98694         3.18203        -5.53190
C          13.48324         3.85474        -6.65943
C          14.68825         4.18917        -7.04416
C          15.40793         4.52666        -7.85831
C          16.29279         4.56581        -7.67578
N          17.46562         5.31711        -9.13923
C          18.67542         4.95623        -8.55395
C          18.92964         5.39622        -9.37491
C          17.57800         4.36013        -7.76500
C          19.66119         5.43710        -9.45634
C          20.25352         4.80884        -8.45722
C          17.63218         3.98719        -7.17193
C          15.12533         3.34490        -6.20215
H           5.98082         1.65862        -2.08290
H           5.97907         0.81932        -2.64387
H           4.75547        -0.50671        -0.95277
H           4.75940         0.98458        -0.08459
H           4.64712         1.69836        -3.02651
H           7.07493         0.61839        -1.20102
H           6.65879         2.34459        -4.12121
H           9.34242         1.38625        -2.39523
H           8.88255         2.98754        -5.21204
H          11.49899         2.11044        -3.50308
H          11.04379         3.63067        -6.31032
H          13.45660         2.70385        -4.71548
H          13.13703         4.28763        -7.42631
H          15.57998         3.17450        -5.29192
H          15.27773         4.96330        -8.57860
H          16.88596         3.80409        -6.42546
H          19.21939         4.83721        -8.06207
H          19.40517         6.25068       -10.77444
H          21.06094         6.33671       -10.93061
H          22.04753         5.58483        -9.67919
H          19.84799         4.28718        -7.56355

