%chk=OdC1CdCCCqCNOOrCCdCCO1.chk
%NProcShared=20
# opt freq b3lyp/6-31g(2df,p)

Title Card Required 

0  1
O           1.04817        -0.09182         0.00591
C           2.27057        -0.09120        -0.07327
C           3.05381         1.01504        -0.65689
C           3.19101         2.15819         0.03800
C           2.56650         2.41725         1.38580
C           3.59776         2.23624         2.52886
C           3.80649         3.54620         3.29633
N           4.33968         4.55005         2.38477
O           4.37812         5.77799         3.12642
O           4.80612         6.81753         2.22805
C           3.14397         1.14594         3.51949
C           4.08899        -0.02150         3.49918
C           3.89650        -1.12456         2.75687
C           2.71594        -1.34912         1.84957
O           3.13005        -0.93665         0.54198
H           3.54363         0.84959        -1.60540
H           3.81835         2.95352        -0.36317
H           1.69669         1.77268         1.53204
H           2.13060         3.42283         1.37850
H           4.57191         1.95283         2.09803
H           4.52102         3.37719         4.11137
H           2.85546         3.86560         3.74100
H           3.63693         4.79188         1.68815
H           4.94120         7.48595         2.91714
H           2.12572         0.82081         3.29784
H           3.07561         1.51815         4.54693
H           5.00214         0.07998         4.08630
H           4.65943        -1.90055         2.76822
H           1.83775        -0.79459         2.19306
H           2.43621        -2.40563         1.86239

