%chk=OdC1CdCN2CdCdCdCCC2CC1.chk
%NProcShared=20
# opt freq b3lyp/6-31g(2df,p)

Title Card Required 

0  1
O           1.14987        -0.01917        -0.09386
C           2.37307         0.05669        -0.03470
C           3.16909        -1.06389         0.49485
C           4.24597        -0.82574         1.26049
N           4.82941         0.36719         1.76540
C           6.20812         0.36414         2.00764
C           6.86325         1.42408         2.35834
C           6.91021         2.54532         2.73006
C           6.02257         3.42777         3.05355
C           4.54585         2.79928         3.02551
C           3.98839         1.63956         1.91965
C           3.62716         2.22042         0.53121
C           3.16521         1.23037        -0.54863
H           2.88416        -2.05455         0.14622
H           4.81875        -1.71063         1.54228
H           6.75498        -0.54929         1.86302
H           6.42871         4.29858         3.59852
H           3.81080         3.61368         3.02724
H           4.45316         2.26833         3.98578
H           3.02533         1.29816         2.34609
H           4.50341         2.73889         0.13816
H           2.82623         2.96187         0.64863
H           4.04016         0.81824        -1.06880
H           2.57305         1.72824        -1.32659

