%chk=OdCCc1ccccccccccco1.chk
%NProcShared=20
# opt freq b3lyp/6-31g(2df,p)

Title Card Required 

0  1
O           1.46502         0.12001        -0.21993
C           3.14777         0.16454        -0.47093
C           5.28960         0.35234        -1.52967
C           7.86189         0.43193        -1.97842
C           6.01540         0.51182        -2.42878
C           7.16705         0.41217        -1.86700
C           7.71368         0.71487        -3.57355
C           8.96429         0.69722        -3.47403
C          10.10382         0.85110        -4.34152
C          11.41518         0.67710        -3.36059
C          11.34073         0.88687        -4.54321
C          13.38343         0.63198        -3.10624
C          13.25575         0.97140        -5.01975
C          14.51232         0.87196        -4.45912
C          12.54875         0.81329        -4.12840
O          10.30969         0.56920        -2.75227
H           2.85576        -0.06236         0.80826
H           3.65219         1.03569        -1.71496
H           3.65219        -0.22560        -1.93869
H           5.15491         0.65206        -3.21943
H           6.84388         0.17706        -0.54153
H           7.18102         0.83743        -4.26447
H           9.39324         0.40617        -1.83316
H           9.60817         0.99002        -5.12475
H          11.89246         0.51426        -2.44254
H          11.92658         1.09355        -5.70837
H          14.56166         0.61621        -3.01731
H          14.29866         1.18671        -6.23361
H          16.17291         0.83703        -4.26223
H          14.42612         0.89172        -4.57056

