%chk=OdCC[C]Nc1ccc2cccccc1-2.chk
%NProcShared=20
# opt freq b3lyp/6-31g(2df,p)

Title Card Required 

0  1
O           1.10346        -0.15931         0.14332
C           2.33978        -0.08073         0.07632
C           2.98257         0.96073        -0.76180
C           4.43247         1.07026        -0.84620
N           5.49905         1.90249        -1.32241
C           6.83735         1.68889        -1.33061
C           7.67854         2.88425        -1.27741
C           8.97255         2.54625        -1.34524
C           9.00665         1.10047        -1.45752
C          10.13903         0.39450        -1.55090
C          10.28088        -1.03882        -1.64439
C           9.33641        -1.98805        -1.69369
C           7.90064        -1.86065        -1.68694
C           7.15492        -0.75328        -1.58857
C           7.62986         0.59384        -1.43357
H           2.97104        -0.77820         0.63866
H           2.63603         1.93160        -0.39049
H           2.62699         0.83591        -1.78733
H           5.21574         2.69029        -1.89871
H           7.28941         3.88318        -1.14644
H           9.81604         3.21354        -1.29198
H          11.08564         0.93324        -1.54535
H          11.31772        -1.37244        -1.67559
H           9.67725        -3.02064        -1.76340
H           7.36622        -2.80513        -1.77785
H           6.07727        -0.87468        -1.63597

