%chk=OdCqOrn1cccqdOrc2c1CCdCC2.chk
%NProcShared=20
# opt freq b3lyp/6-31g(2df,p)

Title Card Required 

0  1
O           0.92284         0.12800         0.18426
C           2.13477         0.08988         0.04847
O           2.82810        -0.99945         0.46716
N           2.91266         1.15575        -0.45296
C           2.45978         2.44771        -0.20662
C           2.99195         3.56708        -0.70284
C           4.11451         3.46604        -1.63776
O           4.61861         4.46884        -2.12768
C           4.58062         2.09601        -1.95027
C           3.98589         1.03240        -1.35959
C           4.42711        -0.36782        -1.74679
C           5.51789        -0.45555        -2.76366
C           6.10560         0.61807        -3.30265
C           5.69752         2.02001        -2.95940
H           3.75659        -0.79142         0.66204
H           1.61330         2.52490         0.47532
H           2.62596         4.55661        -0.46315
H           3.56411        -0.93593        -2.11129
H           4.84438        -0.85613        -0.86415
H           5.85052        -1.45581        -3.02783
H           6.91666         0.48656        -4.01369
H           5.39837         2.52163        -3.88839
H           6.57449         2.54437        -2.56273

