%chk=SdC1CdCCdCSCdNCdCS1.chk
%NProcShared=20
# opt freq b3lyp/6-31g(2df,p)

Title Card Required 

0  1
S           3.61686        -0.27355         0.21273
C           5.22960         0.72664        -0.62382
C           4.08110         1.34793        -1.14345
C           5.45336         1.21306        -1.03066
C           5.49885         2.39593        -2.01999
C           6.61184         2.86324        -2.41085
S           7.31439         4.00178        -3.36311
C           8.85662         3.44803        -2.89995
N          10.12228         3.68784        -3.10054
C          10.86537         2.52354        -2.12673
C           9.87305         1.50470        -1.27458
S           7.70031         0.84824        -0.72552
H           3.24316         1.87385        -1.58333
H           6.27130         0.09614        -0.09647
H           4.67290         2.90788        -2.44818
H           7.30386         2.30964        -1.94782
H           8.70276         2.63382        -2.21896
H          12.06803         2.69076        -2.26658
H          10.07061         2.37038        -1.99862

