%chk=[C]1Oc2cccccc3cqcc2-3rCdCCdCc2ccccc21.chk
%NProcShared=20
# opt freq b3lyp/6-31g(2df,p)

Title Card Required 

0  1
C          10.57274        -5.78974        -1.87308
O           8.84914        -4.76480        -1.15986
C           7.19147        -3.56605        -1.02989
C           5.68666        -2.04911        -0.69074
C           5.24404        -1.75689        -1.95186
C           6.80658        -1.30345        -1.74411
C           7.28479        -2.12696        -2.72529
C           8.70439        -2.39763        -2.56795
C           9.23878        -3.66922        -3.19816
C          10.75493        -3.98161        -2.94435
C          10.52194        -3.24393        -1.86219
C           8.64544        -3.71006        -1.88742
C          11.76769        -4.77006        -3.78575
C          13.11021        -4.77525        -3.62569
C          13.77100        -5.81733        -4.42017
C          15.07891        -5.96661        -4.06915
C          13.96781        -6.89818        -3.77511
C          14.98706        -7.61948        -5.34430
C          15.81227        -8.76858        -5.93911
C          15.29052        -8.88004        -4.53347
C          13.88954        -8.02293        -3.31381
C          12.40258        -6.72142        -2.55197
H           5.20761        -0.55493        -0.24674
H           4.62767        -2.87430        -2.00147
H           7.32099        -1.10829        -0.64391
H           6.69391        -3.43298        -2.83108
H           9.23396        -2.04303        -1.42552
H          11.65022        -2.63756        -1.60296
H          11.23710        -5.84256        -4.01229
H          13.69038        -4.37470        -2.78527
H          12.94150        -6.96574        -4.96961
H          15.82399        -5.48964        -3.44887
H          14.98954        -7.26791        -6.51043
H          15.72007        -9.54916        -7.07673
H          16.43914        -9.78243        -5.06770
H          15.43230        -8.04111        -3.40265

