%chk=[C][N]CCdC[C]q[O]rCdO.chk
%NProcShared=20
# opt freq b3lyp/6-31g(2df,p)

Title Card Required 

0  1
C           1.03145        -0.11212         0.08491
N           2.49960        -0.05801         0.09546
C           2.99393         1.29874         0.35174
C           4.50795         1.30109         0.29990
C           5.23014         2.43101         0.43665
C           6.67098         2.61854         0.29195
O           7.27875         1.86735        -0.51517
C           7.29232         3.88971         0.79997
O           8.49160         4.13575         0.92236
H           2.67128         1.67446         1.33176
H           2.64095         2.00584        -0.41240
H           5.02713         0.37187         0.07809
H           4.67860         3.33421         0.68491
H           6.55325         4.65115         1.09675

