%chk=[C]dCCdC[C]CCCqCrdO.chk
%NProcShared=20
# opt freq b3lyp/6-31g(2df,p)

Title Card Required 

0  1
C           1.01438        -0.01687         0.04086
C           2.34586         0.00578         0.04160
C           3.09665         1.23950         0.08219
C           4.42749         1.17850         0.08019
C           5.36185         2.23060         0.11480
C           6.80828         2.31259         0.11750
C           7.55084         3.61217         0.16026
C           9.05818         3.34808         0.15157
C           9.61859         1.93356         0.10503
O           9.84734         4.30313         0.18299
H           2.89375        -0.93480         0.01066
H           2.56497         2.18366         0.11326
H           4.91675         0.20628         0.04820
H           7.11321         1.77198        -0.78779
H           7.11321         1.71364         0.98530
H           7.30640         4.17295         1.06891
H           7.30640         4.23147        -0.70957
H           8.87211         1.14044         0.07893
H          10.22230         1.75628         0.99803
H          10.22231         1.81537        -0.79770

