%chk=[NH]c1cqOrcc2ncc-2ccc1CCNdNCCdN.chk
%NProcShared=20
# opt freq b3lyp/6-31g(2df,p)

Title Card Required 

0  2
N           0.57904         0.07247        -0.23009
C           1.95551         0.12225        -0.02793
C           2.75169         1.22151         0.45368
O           1.48147         1.61208         1.30558
C           4.40387         1.04465         0.62712
C           5.61421         1.17927         1.74162
N           6.87769         1.11670         1.96668
C           6.69289         1.72528         3.26458
C           5.36196         1.46516         3.10139
C           3.89650         1.42436         3.14740
C           3.02503         0.40904         2.40878
C           2.82880        -0.58324         0.74284
C           2.84478        -0.79510        -1.31637
C           3.55841        -1.42929        -2.94936
N           2.58505        -2.04051        -4.28783
N           3.28579        -2.52845        -5.30665
C           2.54552        -3.13425        -6.53894
C           3.49949        -3.67696        -7.63606
N           3.13943        -4.23489        -8.76398
H           0.22825         0.41285         0.66377
H           1.04752         1.23406         2.13940
H           5.05086         0.25539         0.09978
H           7.57267         2.02933         3.87111
H           3.38071         2.32579         3.59433
H           2.17631         1.10636         3.06634
H           2.17154        -0.02044        -2.00221
H           2.10533        -1.61888        -1.35683
H           4.11796        -2.32722        -2.74854
H           4.08628        -0.64646        -3.52890
H           1.92445        -2.38775        -7.04921
H           1.92434        -3.99296        -6.25586
H           4.58415        -3.59740        -7.47522
H           2.12313        -4.29757        -8.89092

