%chk=[O][N]C1dCNdCCdCOc2ccncc2CdC1.chk
%NProcShared=20
# opt freq b3lyp/6-31g(2df,p)

Title Card Required 

0  1
O           1.95703         0.78863        -0.70002
N           3.26159         1.10590        -1.35726
C           4.57958         2.07708        -1.70169
C           5.16004         0.90827        -1.29446
N           5.61363         0.23791        -2.35519
C           6.82893         0.51286        -2.22017
C           7.33869         0.76728        -3.49306
C           8.60085         0.99071        -3.39861
O           9.05586         1.40927        -4.57505
C          10.04253         2.19274        -4.15734
C          11.30098         1.09689        -4.09477
C          12.59068         1.35731        -3.87165
N          12.67690         2.63057        -4.11195
C          11.26094         3.52460        -4.22149
C           9.52456         3.51948        -3.98443
C           7.60838         3.30063        -3.57041
C           5.90724         2.84624        -2.88338
H           4.84185         0.17045        -0.50630
H           7.31013         0.75308        -1.24844
H           6.77372         1.26291        -4.31569
H           9.17158         1.15592        -2.47301
H          10.96587         0.06500        -4.09353
H          13.34186         0.62544        -3.53205
H          11.99278         4.21004        -4.94501
H           7.57592         3.96703        -4.48118
H           4.98049         2.78055        -3.58719

