%chk=C1dCc2cccc3cqn[nH]c2dC1rCCNNCd3.chk
%NProcShared=20
# opt freq b3lyp/6-31g(2df,p)

Title Card Required 

0  1
C           1.75545         0.22393         0.36463
C           2.82815        -0.54884         0.68729
C           3.76638         0.50141         1.31405
C           4.84715         0.09722         1.93211
C           5.18363         1.31197         3.03314
C           6.44463         1.67664         3.28537
C           7.68858         2.25762         3.84413
C           8.57910         1.66611         2.69740
N           8.00336         1.10842         1.40140
N           6.45283         0.96723         0.40922
C           4.54118         1.08711         0.18144
C           3.06629         0.87757        -0.52921
C          10.01061         1.98857         3.54402
C          11.43925         2.09598         4.02641
N          11.33258         2.63144         5.48357
N           9.97239         3.41062         5.56420
C           8.38894         2.91805         4.95822
H           0.87663         0.64838         0.99126
H           3.47160        -0.97145        -0.42415
H           5.35985        -0.58148         0.92003
H           4.37709         1.91645         3.36462
H           6.59969         1.53079         2.30416
H           6.84838         0.11348        -0.04116
H           2.29898        -0.08575        -1.20209
H           9.78082         1.46548         4.57902
H           9.84927         3.17613         3.50457
H          11.84357         2.82266         3.28222
H          11.82200         1.08800         4.09585
H          11.72070         2.27465         6.38577
H          10.55323         3.96191         4.86867
H           7.61658         3.18104         5.66524

