%chk=C1dCCdCCdc2ccccc2dNCdCCdC1.chk
%NProcShared=20
# opt freq b3lyp/6-31g(2df,p)

Title Card Required 

0  1
C           1.00556        -0.05690         0.13599
C           1.98863         0.79370         0.49179
C           2.55417         1.53487         1.56438
C           3.89890         1.52363         1.42486
C           5.07252         1.96715         2.12437
C           6.41383         1.74132         1.92154
C           7.26646         2.63117         2.77331
C           8.58381         2.80785         2.60761
C           9.32998         1.96339         1.72205
C           8.74950         0.97697         1.01744
C           7.22721         0.77005         0.88390
N           6.84470        -0.14215        -0.01738
C           5.49779        -0.51192        -0.08250
C           4.64225        -1.12325        -0.97697
C           2.99523        -1.40446        -0.99671
C           1.62626        -1.07144        -0.83350
H           0.02719        -0.08306         0.60292
H           2.61642         0.85823        -0.38689
H           2.01128         1.95530         2.39201
H           4.17354         1.10524         0.47887
H           4.76660         2.66412         2.89751
H           6.78609         3.22390         3.55302
H           9.13897         3.53739         3.20233
H          10.41219         2.10834         1.71457
H           9.37914         0.26797         0.48890
H           5.11714        -0.28627         0.88030
H           5.12097        -1.63369        -1.81753
H           3.18865        -1.15210         0.06294
H           0.81112        -1.57445        -1.38637

