%chk=C1dCSS2dCqCdCCdCC3dCC3dC1r[SH]d[SH]2.chk
%NProcShared=20
# opt freq b3lyp/6-31g(2df,p)

Title Card Required 

0  1
C           1.09099        -0.94019        -0.12483
C           2.29686        -0.32742        -0.01878
S           3.61236        -1.00658         0.82704
S           5.31244        -0.94631        -0.31074
C           6.08402        -2.50672         0.01708
C           5.68168        -3.91244        -0.00439
C           4.37396        -4.07222        -0.04966
C           3.40326        -5.12388         0.00661
C           2.18940        -4.55130         0.01350
C           0.83859        -4.80650         0.07537
C          -0.47501        -4.65024         0.18700
C           0.09166        -3.41004         0.22222
C           0.15785        -2.05923         0.31779
S           7.60967        -1.85174         0.57271
S           6.43831        -0.57230         1.27982
H           1.07479        -1.31696        -1.15235
H           2.42128         0.76967        -0.14916
H           6.35073        -4.74112         0.10194
H           3.87180        -3.13468        -0.13872
H           3.68083        -6.16812         0.06051
H           2.20663        -3.47823        -0.00615
H          -1.15104        -5.46136         0.11497
H          -0.74576        -1.46111         0.51027
H           8.08501        -1.57156        -0.62544
H           6.64149         0.72433         1.16544

