%chk=C1dCCdCS2dNCdCNCdCCdCCdC2CdC1.chk
%NProcShared=20
# opt freq b3lyp/6-31g(2df,p)

Title Card Required 

0  1
C           2.11385        -0.61679        -0.82480
C           2.65959        -0.29711         0.39208
C           3.35184        -1.68062         0.06777
C           4.78922        -1.47714        -0.23751
S           5.98187        -2.96195        -1.53137
N           7.09415        -2.39504        -0.77691
C           7.80271        -3.53439        -0.96672
C           9.15617        -3.34541        -1.03739
N           9.99564        -4.39965        -1.33416
C          11.40334        -4.14645        -1.16026
C          12.19349        -5.24282        -1.56621
C          13.47431        -4.64809        -1.79154
C          12.17870        -4.51823        -3.00290
C          10.00903        -3.56472        -3.09223
C           8.02724        -2.88511        -2.86227
C           5.72035        -2.08745        -2.46120
C           3.89627        -1.24284        -1.95706
H           0.57341        -0.89697        -0.45770
H           2.87784         0.78349         0.37514
H           2.57205        -2.25534        -0.82781
H           5.01653        -0.40102        -0.18802
H           7.45767        -4.41963        -1.83921
H           9.54544        -2.29519        -1.02224
H           9.75012        -5.08967        -2.21532
H          11.88773        -3.07239        -1.35951
H          11.91143        -6.08524        -2.53631
H          14.24439        -3.77370        -1.70430
H          13.52817        -5.68404        -2.99585
H          11.72254        -3.94854        -3.06666
H           4.44885        -2.88127        -2.99038
H           2.51755        -0.30483        -1.39510

