%chk=C1dCCdCc2cccnc2CdCCdCNdCSCdC1.chk
%NProcShared=20
# opt freq b3lyp/6-31g(2df,p)

Title Card Required 

0  1
C           0.57173         0.39819         0.18171
C           1.94889         0.19312         0.35212
C           2.88420        -0.95785        -0.24544
C           4.26019        -1.01037        -0.44770
C           5.06440        -1.93091        -1.45129
C           6.22897        -2.64054        -1.06167
C           6.81980        -3.61711        -1.89979
C           6.40767        -3.70017        -3.21157
N           5.42608        -2.92307        -3.69904
C           4.76228        -2.08152        -2.83512
C           3.61959        -1.44975        -3.50991
C           3.04295        -0.32616        -3.10007
C           1.71589         0.07440        -3.47789
C           1.07429         0.96865        -2.76366
N          -0.24996         1.26248        -2.93500
C          -0.55962         2.25947        -2.21024
S          -2.14372         2.35878        -1.55908
C          -1.51001         2.26614         0.07366
C          -0.43583         1.56545         0.60630
H           0.03120        -0.37790        -0.36801
H           2.56243         0.95386         0.83606
H           2.32723        -1.77302        -0.71422
H           4.92858        -0.24125        -0.05518
H           6.71572        -2.46914        -0.10509
H           7.57456        -4.31237        -1.53480
H           6.86510        -4.39645        -3.91565
H           3.20435        -2.01238        -4.34180
H           3.50065         0.27182        -2.31582
H           1.18862        -0.42578        -4.28069
H           1.55760         1.38380        -1.86985
H           0.16886         2.92196        -1.69163
H          -2.04734         3.03524         0.64555
H          -0.27611         1.85822         1.64356

