%chk=C1dCCdc2ccncc3cc-3cc2dNCdC1.chk
%NProcShared=20
# opt freq b3lyp/6-31g(2df,p)

Title Card Required 

0  1
C           1.34810        -0.18350        -0.09335
C           2.24590         0.70923        -0.08043
C           2.84246         1.90520        -0.06313
C           4.12068         1.93592        -0.06268
C           5.37667         2.68869        -0.05179
C           7.15270         2.14637        -0.05964
N           8.09586         2.95708        -0.04791
C           9.27600         3.24218        -0.04378
C           9.09246         4.57819        -0.02445
C           9.77780         5.60505        -0.00959
C           7.87361         5.15028        -0.01617
C           6.49896         4.13813        -0.03082
C           5.43061         2.08466        -0.06053
N           5.29561         0.38169        -0.08517
C           4.14252        -1.09532        -0.10654
C           2.47853        -1.53287        -0.11287
H           0.40188         0.41299        -0.08472
H           3.05055         0.15030        -0.08852
H           2.28413         2.73221        -0.05116
H           4.67399         3.75317        -0.03639
H           7.45116         1.15063        -0.07404
H          10.00565         2.52668        -0.05413
H          10.95238         5.02992        -0.01791
H           5.99593         5.24478        -0.01480
H           4.79280        -2.09146        -0.12096
H           1.20618        -1.81467        -0.11695

