%chk=C1dCOC2dCS2dc2nc3cqcc2-3rdC1.chk
%NProcShared=20
# opt freq b3lyp/6-31g(2df,p)

Title Card Required 

0  1
C           0.89108        -0.20194         0.03050
C           2.13008         0.07651        -0.31770
O           2.82408         1.02267        -0.92206
C           4.14861         0.81502        -0.79368
C           5.22254         1.23158        -1.29300
S           5.49406         0.12706         0.11940
C           4.40952        -0.95718         1.00936
N           4.01730        -2.23726         0.70082
C           3.29610        -2.29346         1.75869
C           1.84007        -1.89114         1.72410
C           2.37180        -1.05551         2.81111
C           3.64416        -0.96426         2.30996
C           0.80658        -1.36475         0.95048
H           0.07790         0.42498        -0.30733
H           2.76793        -0.70792        -0.07578
H           5.49035         1.98244        -2.03748
H           1.83440        -0.61438         3.64736
H          -0.20148        -1.38427         1.37498

