%chk=C1dCCdc2ccncc2dCNCdNC2dCCdCC2dN[SH]d1.chk
%NProcShared=20
# opt freq b3lyp/6-31g(2df,p)

Title Card Required 

0  1
C           0.30567        -0.06640        -0.24983
C           1.60207         0.19376        -0.37935
C           2.75784         1.01587        -0.95937
C           4.16650         0.93959        -0.82482
C           5.00966         1.82838        -1.71088
C           6.35173         1.69471        -1.82383
N           7.16324         0.90929        -1.04851
C           6.56671         0.18966        -0.15672
C           5.08318         0.03960         0.02022
C           4.81612        -0.89363         0.95682
N           3.56474        -1.03387         1.39204
C           2.72346        -1.84183         2.05750
N           1.49822        -1.48277         2.04342
C           0.58370        -2.23806         2.69114
C           0.66069        -2.71812         3.91262
C          -0.45845        -3.54595         4.21771
C          -1.27898        -3.60125         3.15320
C          -0.73985        -2.55671         2.11241
N          -1.34744        -2.07261         1.05953
S          -1.18407        -0.57981         0.18933
H           1.95208        -0.67054         0.08398
H           2.40018         1.78395        -1.65548
H           4.54364         2.59704        -2.31832
H           6.91554         2.28447        -2.54927
H           7.21073        -0.35782         0.55954
H           5.53597        -1.51631         1.47876
H           3.09158        -0.19054         1.12317
H           3.16220        -2.71592         2.55745
H           1.48925        -2.52179         4.57979
H          -0.54576        -4.03825         5.18376
H          -2.18823        -4.19279         3.16610
H          -1.28969         0.26728         1.18712

