%chk=C1dCCdC2CdC[SH]dCCCdCNdC2CdC1.chk
%NProcShared=20
# opt freq b3lyp/6-31g(2df,p)

Title Card Required 

0  1
C          -0.29789         1.43028         0.01624
C          -1.47751         0.85072        -0.01097
C          -1.73268        -0.54908         0.00482
C          -0.96688        -1.64359        -0.06063
C          -1.13594        -2.96832        -0.60298
C          -2.45077        -3.20567        -0.81111
S          -2.13703        -5.37825        -0.83391
C          -4.06953        -4.30299        -0.62263
C          -3.89446        -6.26656        -0.25176
C          -5.33204        -5.60637         0.36409
C          -3.82900        -5.35230         0.94216
N          -2.19956        -4.10326         1.05284
C          -0.87581        -2.89879         0.92002
C           0.55640        -1.33885         0.26745
C           0.77799         0.36904         0.05028
H          -0.32816         2.55634         0.00476
H          -2.38483         1.40038        -0.01200
H          -2.70519        -0.85314         0.02990
H          -0.19605        -4.01209        -0.28442
H          -3.28958        -2.48294        -0.07527
H          -2.01916        -5.70949         0.82292
H          -5.08846        -3.94724        -0.04874
H          -4.33561        -7.13184         0.91744
H          -4.40104        -7.01923        -1.02037
H          -6.54763        -5.37900        -0.04341
H          -5.17476        -6.14656         0.33269
H           1.91240        -0.91101         0.06892
H           1.69791         1.43721        -0.02105

