%chk=C[SH]1CdCCqd[SH]C2dCCdCCdCCdCCdCdCS2rC1N.chk
%NProcShared=20
# opt freq b3lyp/6-31g(2df,p)

Title Card Required 

0  1
C           1.02766        -0.06873         0.07490
S           2.77918        -0.03133         0.18215
C           3.45540        -1.30683        -0.68614
C           4.49602        -0.81614        -1.47059
C           4.71238         1.07797        -1.37976
S           5.75912         3.19268        -2.05948
C           6.26415         5.69538        -1.89867
C           7.09029         4.27696        -2.19431
C           6.79218         5.60017        -1.79414
C           8.06394         6.38789        -2.37709
C           8.39520         7.87377        -2.54201
C           9.33871         8.59337        -2.97116
C           9.01059         9.29968        -1.52539
C           9.72929        10.04683        -2.32444
C           8.21914        11.19504        -1.80586
C           8.95809        11.80743        -2.51958
C           7.62637        10.46335        -2.60154
S           6.42872         8.36840        -1.94304
C           3.37268         1.30256        -0.78896
N           2.42644         1.58790        -1.81991
H           0.66807        -0.90555         0.66719
H           0.67707        -0.16722        -0.95180
H           0.66623         0.86757         0.50063
H           3.24373         0.01164         1.42514
H           3.02931        -2.30860        -0.49484
H           4.94996        -1.64731        -2.04853
H           6.18059         1.73731        -2.95533
H           7.92699         3.63524        -2.59633
H           5.29701         5.06792        -1.15849
H           8.75207         5.70193        -2.81531
H           7.69973         9.02550        -2.47927
H           9.87539         7.73399        -3.05419
H           7.61044         9.85514        -1.04818
H          10.44170        10.49700        -3.17584
H           8.17512        12.56031        -1.83586
H           9.16436        11.30756        -2.99913
H           3.59304         2.08448        -0.13026
H           2.19332         0.76681        -2.38183
H           2.83303         2.29938        -2.39969

