%chk=CC12CqdSrNdCNdCC1dCSC2dS.chk
%NProcShared=20
# opt freq b3lyp/6-31g(2df,p)

Title Card Required 

0  1
C           0.89303        -0.41085        -0.45593
C           2.42634        -0.43268         0.04168
C           3.28054        -1.29835        -0.94452
S           2.56878        -2.49119        -1.92250
N           4.62757        -1.29242        -0.81237
C           5.28423        -0.16299        -0.86274
N           4.75093         1.05096        -1.15489
C           3.63984         1.58040        -0.71488
C           2.54396         1.05219         0.18682
C           1.77818         1.51674         1.25841
S           1.82036         0.19515         2.60477
C           2.98888        -0.56773         1.54146
S           4.59436        -0.45457         2.14968
H           0.78572        -0.50498        -1.54746
H           0.33747         0.54559        -0.37593
H           0.28935        -1.13803         0.07975
H           6.37661        -0.24616        -0.69648
H           3.42041         2.53771        -1.20682
H           0.67543         1.36558         1.28783

