%chk=Cc1ccccccc[nH][nH]c2c1dCCdCdNNNCCCSNCd2.chk
%NProcShared=20
# opt freq b3lyp/6-31g(2df,p)

Title Card Required 

0  1
C           7.82020        -0.30879        -3.06752
C          10.91175        -0.27635        -4.32190
C           8.60140        -0.34689        -3.29912
C           6.51993         0.42436        -1.88132
C           5.50215         1.08040        -2.96727
C           7.32077         1.28598        -2.53972
C           7.48020         0.97153        -4.10763
C           8.83190         0.97352        -4.10291
C           9.54360         0.74028        -5.09905
N          11.20283         0.95188        -5.27190
N          12.10657         0.71756        -6.21724
C          13.96158         0.77756        -6.39934
C          14.36780        -0.06874        -5.78705
C          17.05557         0.14508        -6.93506
C          20.21058         0.47804        -8.32894
C          22.26446         0.65100        -9.77993
N          23.15220         1.28075       -11.45089
N          22.19131         1.32711       -10.67939
N          20.87228         1.26532       -10.85179
C          20.03219         1.27469        -9.73383
C          18.64784         1.16130        -9.83036
C          17.84961         1.09178        -8.62160
S          16.09769         1.04879        -8.86784
N          15.24688         0.95718        -7.45359
C          13.79062         0.89602        -7.51155
H           5.59654        -0.27697        -1.99664
H           5.53020        -0.41602        -2.23495
H           5.50430        -0.07219        -2.23638
H           6.42878        -0.32227        -2.86350
H           5.20807         0.09689        -0.43400
H           4.77125         0.44268        -3.48662
H           7.53279         0.26100        -1.48917
H           6.91077         0.54916        -4.70061
H           9.47986         0.44165        -2.84423
H           9.10862         0.70140        -5.93266
H          11.69654         0.68591        -4.12920
H          11.25378         0.82397        -7.00017
H          19.21607         0.03062        -8.01872
H          22.48824         0.84076        -9.17502
H          22.25262         1.77741        -9.53803
H          20.64937         0.47840       -11.43068
H          20.40750         1.95718        -8.88764
H          19.86017         0.21604        -9.61998
H          18.40388         0.32958       -10.47509
H          18.40597         2.07519       -10.28101
H          18.16654         1.81256        -7.85094
H          17.67430        -0.01779        -8.48244
H          15.76502         0.96431        -6.47285
H          13.24537         0.96908        -8.25033

