%chk=CC1CdCC2dCCdNNdNCdCCdCC2dC1.chk
%NProcShared=20
# opt freq b3lyp/6-31g(2df,p)

Title Card Required 

0  1
C           0.98289        -0.10588         0.03423
C           2.55044        -0.36610         0.34505
C           2.94202         1.00954         0.72972
C           3.39826         0.96506         1.97716
C           3.52264        -0.34876         3.03451
C           3.62838         0.18586         4.21816
C           3.60378        -0.78121         5.21377
N           3.92797        -0.65766         6.43187
N           3.49825        -1.83833         6.90006
N           3.53163        -2.07185         8.09179
C           3.24671        -3.42631         8.41463
C           4.54341        -3.67667         8.38723
C           4.49212        -3.78228         6.49577
C           4.11052        -3.23748         4.72895
C           3.57435        -2.14093         3.19182
C           3.09347        -1.81444         1.55511
H           0.65729         0.86779        -0.45060
H           0.48390        -0.09923         0.99623
H           0.56297        -0.87027        -0.62299
H           2.97283        -0.30984        -0.73560
H           2.80384         1.94915         0.06836
H           3.60716         2.01252         2.28905
H           3.61966         1.18992         4.49831
H           3.12374        -1.69632         4.92709
H           3.10886        -4.55122         7.99224
H           4.49478        -3.13271         9.66082
H           4.92078        -4.70029         7.41068
H           4.20506        -3.94197         3.95367
H           2.93226        -2.36416         0.58413

