%chk=CC1Cdc2ccccc2dCNdCCdC1NS.chk
%NProcShared=20
# opt freq b3lyp/6-31g(2df,p)

Title Card Required 

0  1
C           0.62546        -0.22675        -0.29355
C           2.11327        -0.09102         0.05186
C           3.02156        -1.00848        -0.77938
C           4.35158        -1.00676        -1.07158
C           4.82657        -1.96319        -2.13187
C           6.12659        -2.30253        -2.22488
C           7.12797        -1.63561        -1.42023
C           6.80475        -0.63203        -0.58019
C           5.40829        -0.21254        -0.36410
C           5.21208         0.90349         0.40502
N           4.08901         1.65801         0.28609
C           3.46361         2.16153         1.32423
C           1.97453         1.82104         1.38934
C           2.14613         0.47457         1.54190
N           2.70610         0.22175         2.83479
S           2.87442        -1.10009         3.78991
H           0.44567         0.07598        -1.33430
H           0.01869         0.46178         0.30884
H           0.28306        -1.24082        -0.11441
H           2.29724         0.80139        -0.58463
H           2.41891        -1.59634        -1.48491
H           4.12455        -2.40674        -2.83773
H           6.47905        -3.03884        -2.94779
H           8.16760        -1.89887        -1.59179
H           7.59433        -0.03864        -0.13754
H           6.01183         1.25738         1.04551
H           3.90611         2.43256         2.29511
H           1.40747         2.35893         2.14125
H           2.43727         1.01447         3.42777
H           4.19858        -1.33684         3.69445

