%chk=CC1dC2CdCqC2rC2dCCdCCdc3cccnc3dCC2dCCdC1.chk
%NProcShared=20
# opt freq b3lyp/6-31g(2df,p)

Title Card Required 

0  1
C           1.16500         0.07734        -0.12980
C           2.58100         0.78564        -0.62117
C           3.50678         0.46390        -1.56615
C           3.36841         1.43662        -2.71641
C           4.72108         2.01425        -2.65058
C           4.97388         0.99049        -1.31915
C           5.81544         3.48228        -3.23556
C           6.81784         2.98542        -2.59367
C           7.76220         3.61779        -3.18943
C           8.99060         3.44263        -3.14286
C           9.62267         4.32430        -3.81215
C          10.69968         4.78092        -4.14423
C          11.65178         3.95231        -3.53475
C          12.76425         3.63245        -4.11173
C          13.00176         4.96142        -4.77895
N          11.80195         5.90813        -5.24426
C           9.96235         5.71795        -4.98465
C           8.12375         5.87380        -4.98001
C           6.21256         5.08048        -4.17981
C           4.63013         4.78017        -3.41112
C           3.43730         3.82333        -2.05049
C           2.92782         2.62642        -0.82204
H           0.56654         0.69498        -0.77507
H           0.78993         0.24603         0.91668
H           0.81653        -0.98586        -0.33220
H           2.18291         1.94534        -2.59137
H           5.27334         1.32001        -0.24770
H           5.56739         0.11370        -1.46503
H           7.01481         2.14116        -2.04081
H           7.60186         4.30231        -3.89761
H           9.45782         2.77497        -2.62157
H           8.88558         4.88002        -4.04427
H          11.22519         3.35930        -2.75278
H          13.30942         2.70602        -3.90748
H          14.36767         4.91338        -4.70838
H           8.85197         6.76754        -5.66303
H           3.84196         3.73897        -3.64520
H           2.43399         4.22539        -2.82174
H           3.32040         1.62750         0.13100

