%chk=CC1dCCdc2cccqdOrcqdNroc2dCCdCCdCCdC1.chk
%NProcShared=20
# opt freq b3lyp/6-31g(2df,p)

Title Card Required 

0  1
C           0.76252         0.10710         0.02915
C           1.78869         0.29110        -1.13724
C           3.16764         0.20382        -1.05152
C           4.69039         0.15833        -1.33512
C           5.62901         0.31952        -2.37957
C           6.97400        -0.02905        -2.07285
C           7.56704        -0.52820        -3.18445
C           8.83801         0.09343        -3.45727
O           9.77309         0.21038        -2.64268
C           8.56810         0.55538        -4.85542
N           9.14826         0.33468        -6.02225
O           7.06213         0.99737        -4.87603
C           5.49016         0.76916        -3.97679
C           4.34555         0.49575        -4.41522
C           3.27980         0.35139        -5.51625
C           1.97981         0.28942        -5.31829
C           0.71843         0.29024        -6.02945
C          -0.36601         0.15380        -5.20560
C          -0.17939         0.00652        -3.48916
C           0.89663         0.35604        -2.56437
H          -0.20236         0.11326        -0.48722
H           0.63520         0.96914         0.68924
H           0.68456        -0.88056         0.52831
H           3.14494         0.14968        -2.10869
H           5.17033        -0.00160        -0.34609
H           7.46999         0.15374        -1.11947
H           6.95829        -0.78640        -4.17988
H           8.23105         0.42623        -6.46657
H           3.65532         0.21097        -3.62250
H           3.53834         0.39302        -6.51844
H           1.71650         0.25654        -4.30952
H           0.75846         0.42606        -7.12380
H          -1.47666         0.23604        -5.55173
H          -0.92575         0.74157        -3.86142
H           0.76191        -0.59748        -2.01062

