%chk=CC1dCCdCCdCNdC2NdCCdCCdC2S1.chk
%NProcShared=20
# opt freq b3lyp/6-31g(2df,p)

Title Card Required 

0  1
C           2.03632         0.27728         0.17400
C           3.91580         1.05348         0.69491
C           3.39040         1.99980        -0.03966
C           4.54698         1.74240        -0.97254
C           5.39188         2.81904        -1.13591
C           7.15327         2.30292        -0.80540
C           7.94860         2.49236         0.46020
N           9.24494         2.79789         0.37766
C           9.10783         4.05813         0.17225
N          10.71606         4.38553        -0.02799
C          11.67957         5.28422         0.09167
C          11.30710         6.65205         0.19572
C           9.89455         6.73757         0.17971
C           8.25534         5.71061         0.28987
C           7.15181         4.39679         0.14574
S           5.61680         2.66557         1.17489
H           1.12265         1.02642         0.02642
H           1.29167        -0.43908         0.84064
H           1.39115        -0.35483        -0.86957
H           2.33584         2.27561        -0.16211
H           5.26414         0.73310        -0.64966
H           4.71841         3.70797        -0.33087
H           7.54548         1.27742        -0.65729
H           7.46182         3.28741         1.45612
H          12.87822         5.16337         0.07753
H          12.24280         7.40994         0.20794
H           9.99820         7.95233         0.21054
H           8.00236         6.78699         0.13563

