%chk=CC1dCC2dCCdCCdCqCdSrCq[N]rC2dN1.chk
%NProcShared=20
# opt freq b3lyp/6-31g(2df,p)

Title Card Required 

0  1
C           1.12758         0.12334         0.04463
C           2.62511         0.08770         0.03908
C           3.10399        -1.11205         0.05290
C           4.42673        -0.96781         0.03077
C           5.28117        -1.87922        -0.18077
C           4.99570        -3.14486        -0.02795
C           6.46140        -3.35910        -0.07575
C           6.33816        -4.64897         0.11075
C           6.90305        -3.21996         0.55827
C           7.42940        -5.15838         0.07711
S           8.40005        -6.91038         0.04355
C           6.74478        -0.88371         0.54181
N           6.38408         0.84552        -0.02028
C           5.06666         0.23117         0.21940
N           3.74195         0.93581         0.03803
H           0.71884        -0.92192         0.04858
H           0.71096         0.58344        -0.84871
H           0.71763         0.58559         0.94084
H           2.81689        -2.10460         0.05135
H           6.74444        -1.86696        -0.63165
H           4.10096        -3.68138         0.04351
H           8.13963        -3.14284        -0.10709
H           5.38200        -5.32536         0.01665
H           6.59263        -6.43359         0.03093
H           7.49388         0.16686         0.07798

