%chk=CC1dCCdCCdCCdCNC1dCdCCdS.chk
%NProcShared=20
# opt freq b3lyp/6-31g(2df,p)

Title Card Required 

0  1
C           1.94617        -0.07467        -0.05408
C           3.98262         0.15391        -0.22213
C           3.33784         1.19518        -0.72167
C           4.46250         1.71075        -0.97221
C           5.23338         2.53648        -1.46270
C           6.51483         2.54256        -1.10097
C           7.39476         3.39737        -1.51935
C           8.72949         3.19683        -0.76450
C           8.65302         2.48082        -1.88058
N           7.76314         0.86666        -1.20142
C           5.99223        -0.06192        -0.43695
C           4.98584        -1.20019         0.44548
C           3.60906        -2.14982         1.12531
C           2.88679        -3.25602         2.60910
S           1.71345        -4.70211         3.36164
H           1.07169         0.87167        -0.51861
H           1.11009        -0.00264         0.93797
H           1.09964        -0.83421        -0.59017
H           2.58866         1.86132        -1.02653
H           5.24834         1.34169        -0.53862
H           4.76696         3.29220        -1.84567
H           6.77756         1.81322        -0.26794
H           7.07633         4.13116        -2.25923
H           9.60993         2.25423        -0.54123
H           9.05781         3.94673        -2.40033
H           8.84575         1.50495        -1.79610
H           2.31106        -2.78453         0.93989
H           3.37509        -3.16313         3.55559

