%chk=CC1dCCdC2CdCCqSrdS2C1dS.chk
%NProcShared=20
# opt freq b3lyp/6-31g(2df,p)

Title Card Required 

0  1
C           0.91520         0.20769        -0.08975
C           2.41118         0.14623        -0.09626
C           3.18624         1.24709        -0.02906
C           4.64189         1.24433        -0.06460
C           5.34937         0.13435         0.00820
C           6.74313        -0.11816        -0.29246
C           6.98114        -1.38706        -0.68234
C           5.68946        -2.10952        -0.73490
S           5.39885        -3.64121        -1.44546
S           4.64898        -1.41832         0.51924
C           3.00239        -1.23530        -0.08954
S           2.13720        -2.68235        -0.09139
H           0.53551         1.23062        -0.08428
H           0.53495        -0.29170         0.80909
H           0.51418        -0.29902        -0.97394
H           2.72420         2.23267        -0.01937
H           5.12011         2.20829        -0.26567
H           7.50195         0.61214        -0.03657
H           7.95192        -1.86031        -0.64445
H           5.19043        -3.43399        -2.76679

