%chk=CCC1dCCdCCdCCdCCdCONd[SH]SSS1.chk
%NProcShared=20
# opt freq b3lyp/6-31g(2df,p)

Title Card Required 

0  1
C           1.78855        -0.83631         0.16514
C           3.60340        -2.24239         0.54079
C           4.98147        -4.09146         1.00809
C           4.69019        -2.39136         0.57474
C           5.25517        -3.48812         0.86805
C           6.62339        -3.09580         0.76343
C           7.17382        -4.25369         1.06962
C           8.33194        -4.71557         1.19135
C           8.78880        -5.90678         1.50068
C          10.03351        -6.00664         1.53077
C          10.38200        -7.17843         1.85577
C          11.64757        -7.40616         1.90070
O          11.87968        -8.54056         2.24605
N          13.53140        -9.49590         2.44865
S          13.56183       -11.15961         2.98702
S          11.35486       -10.28050         2.57769
S           8.70022        -8.75691         2.22163
S           6.54437        -6.50236         1.65990
H           1.00297         0.56276        -0.20472
H           0.76001        -0.46308         0.98533
H           0.76001        -0.91729        -0.73212
H           3.33883        -0.57162         0.73870
H           3.33873        -0.89024        -0.46371
H           5.11902        -1.09106         0.23290
H           3.68342        -4.15872         1.04540
H           7.04489        -2.22441         0.53237
H           6.35755        -4.86071         1.23127
H           8.95185        -3.97093         0.99431
H           8.11713        -6.75547         1.69810
H          10.82705        -5.48293         1.39446
H           9.10099        -7.35740         1.97838
H          12.64121        -7.19007         1.84094
H          13.57812       -12.07785         1.94278

