%chk=CCdCc1dc2c3ccqcc2-3rdc-cdc-cdc-cdc-1.chk
%NProcShared=20
# opt freq b3lyp/6-31g(2df,p)

Title Card Required 

0  2
C           1.26893        -0.07816         0.09174
C           2.86192         0.20636         0.25574
C           3.95240        -0.56439         0.59319
C           5.64471        -0.43393         0.64925
C           6.01198        -1.61557         0.00862
C           6.92603        -2.36261         0.68670
C           7.91937        -2.00290         1.47207
C           9.04480        -2.13610         0.61744
C           8.57907        -2.82867        -0.54618
C           7.21232        -2.68051        -0.63211
C          10.13804        -1.54617         0.93266
C          10.95488        -0.65595         1.89763
C          11.10919         0.18442         2.69829
C          10.45129         1.38472         3.39413
C           9.30018         1.53070         3.04159
C           7.71978         1.09992         2.15942
C           6.74297         0.57858         1.54285
H           0.75519         0.90113         0.00799
H           0.77130        -0.54325         0.95795
H           0.89892        -0.60474        -0.81329
H           3.05395         1.23548        -0.00079
H           3.63969        -1.63351         0.55005
H           7.77308        -1.23221         2.18959
H           9.30500        -3.47863        -1.04294

