%chk=CCdCC1dCqCrS[SH]dCdCCqdSrS1.chk
%NProcShared=20
# opt freq b3lyp/6-31g(2df,p)

Title Card Required 

0  1
C           1.39474         0.01756        -0.02548
C           3.05868        -0.08988         0.11164
C           4.03726         0.30789        -0.78259
C           5.62040         0.55824        -1.36215
C           5.59421         1.26801        -2.51567
C           4.47622         1.70228        -3.40517
S           6.91641         2.30098        -2.74403
S           7.44843         2.35073        -4.63455
C           8.86456         1.97210        -4.11902
C           9.74719         1.59769        -3.20185
C           9.35826         0.76848        -1.85459
S          10.87674         0.25066        -1.13106
S           7.58237         0.17217        -0.78746
H           0.89971        -0.42644         0.86468
H           0.94266        -0.54619        -0.86247
H           0.96351         1.03678        -0.05858
H           3.26527        -0.54161         1.07354
H           3.39910         0.73847        -1.55032
H           3.44261         1.55942        -3.11309
H           4.61623         1.19148        -4.35802
H           4.56761         2.78682        -3.53876
H           7.46457         3.64883        -4.44829
H          10.78894         1.85242        -3.46394

