%chk=CCdCqOrC1dCCdCCqdSrSS1.chk
%NProcShared=20
# opt freq b3lyp/6-31g(2df,p)

Title Card Required 

0  1
C           1.02961         0.04022         0.02774
C           2.51423         0.04578        -0.04910
C           3.25017        -0.70605        -0.88635
O           2.68272        -1.58459        -1.78720
C           4.71046        -0.75104        -0.83929
C           5.31536        -0.82782         0.36322
C           6.65642        -1.22864         0.68117
C           7.82687        -1.02128         0.06084
C           8.20052        -0.20578        -1.13178
S           9.82179         0.02837        -1.53825
S           6.94330         0.61797        -2.04221
S           5.57139        -0.87899        -2.35027
H           0.69642         0.72584         0.81200
H           0.66045        -0.95981         0.27703
H           0.60343         0.36923        -0.92278
H           3.01469         0.70095         0.66184
H           1.71675        -1.53500        -1.72077
H           4.69581        -0.75083         1.25692
H           6.69317        -1.81475         1.60044
H           8.67828        -1.52738         0.51336

