%chk=CCNNNC1dCdCdCCdCCdCCdCC2dCCqNNNOrdCCdCCdC12.chk
%NProcShared=20
# opt freq b3lyp/6-31g(2df,p)

Title Card Required 

0  1
C           0.97499         0.06782         0.07431
C           2.61560         0.23237         0.07888
N           3.47036         1.99660         0.69092
N           5.04107         3.66600         0.52090
N           5.77260         5.93453         0.62433
C           6.77230         8.07842         0.58314
C           7.09585         6.41508         1.30664
C           7.25309         5.39403         2.22919
C           7.63940         6.35615         2.96109
C           7.14071         7.77727         2.74140
C           7.80192         8.86024         2.89897
C           7.20189        10.03114         2.49447
C           7.67764        11.20629         2.86094
C           7.07535        12.41520         2.39647
C           7.78114        13.57091         2.57688
C           7.44055        12.70906         0.99897
C           6.66220        14.46590         1.29622
C           6.18195        16.38425         0.79836
N           5.37148        17.67982         1.43004
N           4.86144        17.61510         2.71226
N           4.23678        18.82093         3.10618
O           3.69007        18.66229         4.43750
C           6.56134        16.75181        -0.46405
C           7.33694        15.57958        -1.04707
C           8.22428        14.35898        -0.34828
C           8.14642        12.37563         0.40632
C           7.37622        10.44544         0.46364
H           0.58483        -0.88555        -0.34870
H           0.57314         0.87062        -0.53103
H           0.57686         0.14571         1.08428
H           2.84322        -0.03990        -0.95788
H           2.84555        -0.74961         0.67231
H           2.71395         1.52862         1.59333
H           4.98987         2.17137         0.01709
H           5.12191         4.73924         1.31908
H           8.30393         6.25800         3.76331
H           6.08526         8.32764         2.07955
H           8.44037         8.78222         3.67060
H           6.39634         9.91339         1.59263
H           8.46267        11.26541         3.54230
H           6.13161        12.15764         1.23772
H           8.52676        13.72326         3.37637
H           5.49285        14.72063         1.62803
H           5.22013        18.60838         0.92037
H           5.63410        17.42007         3.35035
H           3.41374        19.01360         2.51877
H           4.46896        18.47896         4.99919
H           6.37099        17.73008        -0.99086
H           6.78852        15.22862        -1.94183
H           8.98493        14.54562        -1.23750
H           8.87793        13.89753         0.38627

