%chk=CCOc1cc2scqc1dSrdCCdCCdCSCd2.chk
%NProcShared=20
# opt freq b3lyp/6-31g(2df,p)

Title Card Required 

0  1
C           1.00388         0.09440         0.05412
C           2.47457         0.21398         0.03709
O           2.89917         0.28489        -1.32939
C           4.25515         0.18287        -1.41890
C           5.03136         0.88583        -2.22389
C           6.28420        -0.04531        -2.29960
S           7.95768         0.12641        -1.29838
C           6.69424        -0.70593        -0.18817
C           4.97295        -0.88937        -0.63304
S           4.02041        -2.19715        -0.09411
C           7.95084        -1.29605        -0.05141
C           7.42691        -1.72521         1.13114
C           8.22721        -2.72606         1.38930
C           7.28169        -3.71931         1.83119
C           7.84291        -4.47117         0.91553
S           6.89392        -3.33774        -0.99975
C           6.78634        -1.63149        -2.21452
H           0.67125        -0.00484         1.08796
H           0.68186        -0.79096        -0.50941
H           0.63666         0.99212        -0.40821
H           2.66469        -0.65442         0.65054
H           2.93155         0.99382         0.63438
H           4.49413         1.65248        -2.90620
H           9.03515        -1.61320        -0.70212
H           6.16027        -2.05560         1.15887
H           9.30921        -3.09364         1.01536
H           6.32457        -4.16355         2.21731
H           8.83555        -4.84547         1.90468
H           6.84066        -0.11512        -2.67259

