%chk=Cdc1ccc2cqc1rCdCNdNCdCCdCCd2.chk
%NProcShared=20
# opt freq b3lyp/6-31g(2df,p)

Title Card Required 

0  1
C           1.04802         0.09858        -0.03112
C           2.37742        -0.00048        -0.04933
C           3.52306         0.81819        -0.19462
C           4.98534        -0.23116        -0.23223
C           5.56053        -2.28479        -0.12736
C           4.25654        -1.48871        -0.31321
C           2.98074        -1.25384         0.06955
C           4.73075        -2.70800        -0.90421
C           3.83738        -3.57274        -0.45053
N           4.08828        -4.68737        -0.79847
N           4.07480        -5.77276        -0.95075
C           5.64694        -5.97964        -1.68441
C           4.70374        -7.01293        -1.19404
C           5.59103        -8.16546        -0.68982
C           5.58378        -6.50361         0.09965
C           5.85227        -4.33387        -0.04558
H           0.49461         1.01455        -0.10428
H           0.48368        -0.82951         0.02466
H           2.78533         2.03631        -0.15788
H           5.17033         1.29662        -0.05578
H           2.49171        -2.07371         0.37987
H           6.08929        -3.17146        -1.50727
H           2.96386        -3.61582        -0.05056
H           6.68329        -6.97109        -1.30523
H           3.62889        -7.92195        -0.65051
H           6.15289        -9.44915        -1.22104
H           5.09197        -8.14086        -0.42203
H           6.52413        -2.93638        -0.15770

