%chk=CdC1CdCCdCCdCCdCSSCdCC1d[SH]S.chk
%NProcShared=20
# opt freq b3lyp/6-31g(2df,p)

Title Card Required 

0  1
C           3.24901        -0.53579        -0.36978
C           5.33720        -1.15912        -0.72080
C           3.36703        -1.05940        -1.01801
C           4.78597        -1.13457        -1.26288
C           5.30941        -2.20678        -2.13625
C           6.52913        -2.16079        -2.12217
C           7.40926        -3.01840        -2.83073
C           8.73080        -3.04910        -2.92430
C           9.18349        -3.96585        -3.71687
C          10.40376        -3.57602        -3.83884
S          11.49432        -5.09305        -4.80904
S          11.25638        -3.30260        -3.95912
C          11.86436        -4.39558        -3.37994
C          10.21238        -3.19477        -2.09459
C           7.99174        -1.86129        -1.14312
S           5.94090        -0.17785         0.55337
S           4.46773         2.00968         1.94701
H           1.39178        -0.61886        -0.59007
H           1.61522         0.21467         0.17651
H           2.67630        -1.70450        -1.60633
H           6.04430        -0.02933        -1.00615
H           4.70391        -2.71141        -2.53533
H           7.55975        -2.41516        -2.39600
H           6.88415        -3.63301        -3.38568
H           9.26735        -2.22683        -2.14995
H           8.96636        -4.63845        -4.30199
H          10.75097        -2.14951        -2.75374
H          13.04597        -5.30592        -4.75659
H          12.17292        -3.36226        -2.68462
H           4.03762         0.49331         1.25038
H           4.54683         3.80223         1.98674

