%chk=CdC1CdCCdCCdCSqdSdOrCqSrdC1.chk
%NProcShared=20
# opt freq b3lyp/6-31g(2df,p)

Title Card Required 

0  1
C           2.36927         0.00526        -0.03513
C           4.25820        -0.18362        -0.21600
C           3.09294        -1.30933        -0.28261
C           4.22053        -1.82253        -0.35524
C           4.96823        -2.82953        -0.59312
C           6.21504        -2.93365        -0.52298
C           6.91716        -3.97908        -0.89597
C           8.05101        -3.38134        -0.84845
S           9.16840        -4.44046        -0.91327
S           9.01440        -5.72706        -2.68170
O           7.62879        -6.22606        -2.91668
C           8.03468        -2.10911        -0.73411
S          10.18278        -3.63352        -0.84463
C           6.43420        -0.86723        -0.52768
H           0.96366        -0.68872        -0.13755
H           1.03965         0.78798         0.17088
H           2.50263        -2.19094        -0.46447
H           5.02964        -1.43092         0.05799
H           4.49843        -3.64469        -0.78507
H           6.93433        -2.02352         0.22019
H           6.66123        -4.95455        -1.05624
H           9.36994        -2.35562        -0.57144
H          11.72541        -4.67032        -0.91513
H           5.63948         0.25048         0.04469

