%chk=Cdc1scc2c1dCCdCCdCNdNCdCCdN2.chk
%NProcShared=20
# opt freq b3lyp/6-31g(2df,p)

Title Card Required 

0  1
C           3.49963        -0.56939        -0.00661
C           5.87235        -0.77316         0.00884
S           3.60077         0.55386        -0.00383
C           5.07183         0.31471        -0.03258
C           6.36610        -1.08584        -0.06840
C           8.68640        -1.41290         0.04826
C          11.27422        -1.86557        -0.06161
C          13.75216        -2.46065        -0.04833
C          13.56908        -3.78627        -0.05410
C          12.56118        -2.64720        -0.05791
C          11.11646        -3.32564        -0.04096
N          10.29828        -1.19306        -0.03687
N           9.96589        -2.67902        -0.03938
C          10.01537        -1.20355        -0.07105
C           8.97046        -2.91579        -0.05016
C           7.16948        -1.72441        -0.04233
N           5.75391        -2.43326        -0.03866
H           1.64524         0.24849        -0.00896
H           1.50555        -0.80051        -0.00886
H           5.21316         1.25701        -0.02820
H          13.52865        -2.21990        -0.03759
H          15.70486        -2.06860        -0.06631
H          14.79654        -4.40510        -0.05699
H          13.83576        -1.17153        -0.06121
H          12.13582        -4.12484        -0.04489
H           9.33693        -0.25742        -0.04966
H           7.74991        -3.20628        -0.02680
H           7.12589         0.05926        -0.02876

