%chk=CdC1CdCCqCSCdSrdC1C[SH]d[SH]SS.chk
%NProcShared=20
# opt freq b3lyp/6-31g(2df,p)

Title Card Required 

0  1
C           2.10965         0.29894        -0.10333
C           0.79353         0.05685         0.00919
C          -0.16629         1.13319         0.04792
C          -1.38606         0.57037        -0.02462
C          -1.25874        -0.90027        -0.04058
C          -2.53001        -1.75781        -0.10954
S          -2.13628        -3.51893        -0.08640
C          -3.56660        -4.48018        -0.19197
S          -3.40347        -6.15280        -0.18636
C           0.07486        -1.21886         0.02513
C           0.66767        -2.61202         0.12700
S           2.46370        -2.78466         0.21340
S           2.80936        -4.57488         0.50664
S           4.83834        -4.46311         0.43549
S           5.52638        -6.39090         0.52034
H           2.53411         1.29081        -0.09694
H           2.84215        -0.47154        -0.25906
H           0.07664         2.18413         0.07199
H          -2.30863         1.13152        -0.06179
H          -3.07681        -1.52185        -1.03150
H          -3.18826        -1.51913         0.73464
H          -4.54578        -3.99129        -0.25918
H           0.38337        -3.17557        -0.76600
H           0.27834        -3.08667         1.03622
H           2.67628        -2.27376         1.40535
H           2.57275        -5.05408        -0.69656
H           6.84632        -6.16937         0.65483

