%chk=CdC1CdCCdCCdCCdNNdCS1.chk
%NProcShared=20
# opt freq b3lyp/6-31g(2df,p)

Title Card Required 

0  1
C           2.90813         0.44177         0.19399
C           4.75607         0.78734         0.38572
C           3.51884         1.54743         0.74273
C           4.92978         1.44081         0.69201
C           5.15533         2.70589         1.30699
C           6.24895         3.21142         1.55265
C           6.97667         4.13045         2.00022
C           8.17354         3.94659         1.91057
C           9.11307         4.73306         2.29350
N          10.00619         3.59388         1.73760
N          10.17117         4.56873         2.21469
C           9.55734         2.92383         1.41407
S           7.37752         1.47737         0.69973
H           1.40047         0.81029         0.38611
H           1.60396        -0.34413        -0.18083
H           2.69658         2.23702         1.07800
H           5.95120         0.22546         0.10126
H           4.52608         3.40477         1.64690
H           7.16465         2.94286         1.42169
H           6.66321         4.91516         2.38242
H           8.37343         2.56509         1.23741
H           8.96050         5.79461         2.81070
H          11.31031         3.40796         1.64870

