%chk=CdC1CCdCC2dCCdc3cccnc3dCNdCCdNNdCC2dN1.chk
%NProcShared=20
# opt freq b3lyp/6-31g(2df,p)

Title Card Required 

0  1
C           1.09979         0.14894         0.08698
C           2.44900         0.03919         0.02158
C           3.03425        -1.32131         0.05607
C           3.47246        -1.70156        -1.40169
C           4.18271        -0.97754        -2.34283
C           4.69699         0.39207        -2.17082
C           5.87120         0.99339        -2.52360
C           7.02453         0.24193        -3.00804
C           8.21883         0.60305        -3.51733
C           8.55953         2.01745        -3.50054
C           9.81342         2.37809        -3.72390
C          10.59456         1.39708        -4.50641
N          10.32896         0.14225        -4.70196
C           9.21987        -0.39586        -4.06779
C           9.08775        -1.74373        -4.01642
N           8.10383        -2.28798        -3.24396
C           7.78405        -3.46261        -2.96932
C           6.53057        -3.44782        -2.08074
N           5.91579        -2.92634        -0.99037
N           6.30302        -1.59761        -0.37039
C           5.71623        -0.37609        -0.17292
C           4.52135         0.60100        -0.75059
N           3.35297         1.03537        -0.29032
H           0.49983        -0.74839         0.25022
H           0.55525         1.05945        -0.11070
H           2.39721        -2.07846         0.51697
H           3.84679        -1.25868         0.80460
H           3.45916        -2.77979        -1.50346
H           4.83866        -1.52692        -2.99034
H           6.16753         1.93608        -2.04932
H           6.88946        -0.79192        -2.75896
H           7.82866         2.73875        -3.15389
H          10.20418         3.36542        -3.51346
H          11.45115         1.83924        -5.03956
H           9.79684        -2.39667        -4.50906
H           8.19446        -4.40269        -3.44388
H           5.85890        -2.97234        -2.76966
H           6.37980         0.30966         0.35792

