%chk=Cdc1c2cccc-2c[nH]c1dCdCCCCdN.chk
%NProcShared=20
# opt freq b3lyp/6-31g(2df,p)

Title Card Required 

0  1
C           0.95533         0.01401        -0.04973
C           2.29983         0.03325        -0.04037
C           3.06929        -1.20174         0.01120
C           2.71214        -2.50098         0.03766
C           3.91276        -3.32630        -0.03274
C           5.01128        -2.55079         0.06933
C           4.53188        -1.19134         0.03101
C           5.16530        -0.01155        -0.04297
N           4.47305         1.18832        -0.13094
C           3.08780         1.28537        -0.13385
C           2.51853         2.45576        -0.25188
C           1.84799         3.56248        -0.37475
C           1.85473         4.41047        -1.61154
C           0.98030         5.65411        -1.47619
C           1.07539         6.50272        -2.71568
N           0.43905         7.61856        -2.85239
H           0.39508        -0.91132         0.00178
H           0.37288         0.92458        -0.12419
H           1.70790        -2.88687         0.10471
H           3.88832        -4.39361        -0.19274
H           6.04210        -2.85884         0.08518
H           6.24611         0.07595        -0.06520
H           5.00346         2.04561        -0.23015
H           1.16074         3.82384         0.42722
H           1.51404         3.81613        -2.46972
H           2.88888         4.71016        -1.81900
H           1.29762         6.25850        -0.61887
H          -0.07028         5.37886        -1.32520
H           1.71759         6.15285        -3.54068
H          -0.12230         7.83403        -2.02140

