%chk=CdC1CqCrC1Cd[SH]Cd[SH]CCdN.chk
%NProcShared=20
# opt freq b3lyp/6-31g(2df,p)

Title Card Required 

0  1
C           1.13639        -0.02133         0.10583
C           2.45640        -0.02222         0.11607
C           3.61605        -0.81994         0.07029
C           4.03901        -1.51992        -1.17571
C           3.64107         0.74602         0.12538
C           4.02397         1.43503         1.37193
S           4.10454         3.21373         1.20644
C           4.62243         3.72145         2.87252
S           4.80020         5.50963         3.12062
C           5.31462         5.60656         4.85324
C           5.44103         7.07467         5.21013
N           5.84518         7.52516         6.35361
H           0.57523        -0.94824         0.05736
H           0.57086         0.90300         0.12406
H           3.89322        -1.36664         0.96157
H           3.74308        -0.98893        -2.08812
H           3.60486        -2.52399        -1.21169
H           5.12868        -1.62530        -1.18871
H           3.89667         1.25584        -0.79850
H           4.32434         0.86979         2.26799
H           2.83083         3.54282         1.20790
H           4.87205         2.98996         3.65939
H           3.53461         5.85985         3.19514
H           6.29133         5.12937         4.97345
H           4.58427         5.12938         5.51278
H           5.16598         7.81606         4.43921
H           6.08096         6.77009         7.00204

