%chk=CdC1CdCCdCdC1SCqSrSSSS.chk
%NProcShared=20
# opt freq b3lyp/6-31g(2df,p)

Title Card Required 

0  1
C           1.10237        -0.11889         0.13600
C           2.43749        -0.14305         0.01423
C           3.10042         1.09285        -0.13667
C           4.43211         1.14139        -0.53952
C           5.10058        -0.03938        -0.83542
C           4.49139        -1.26011        -0.55505
C           3.19880        -1.33951        -0.04203
S           2.65255        -2.88132         0.73560
C           4.09795        -4.06882         0.63954
S           5.61003        -3.44589         1.45430
S           3.56642        -5.66784         1.45448
S           5.12376        -6.99693         1.14352
S           4.57625        -8.74624         2.09784
S           6.15273       -10.04794         1.84562
H           0.53705         0.81120         0.06282
H           0.49599        -1.02114         0.11235
H           2.58082         2.03251         0.05287
H           4.93512         2.09842        -0.65776
H           6.10905        -0.02397        -1.23263
H           4.28662        -4.26797        -0.41867
H           5.08588        -3.29093         2.67426
H           5.67599       -11.14820         2.45725

