%chk=CdCc1cc2ccccccc3nccc3ccccc2c[nH]1.chk
%NProcShared=20
# opt freq b3lyp/6-31g(2df,p)

Title Card Required 

0  1
C           0.96996         0.00555        -0.00672
C           2.31676        -0.04482        -0.07297
C           3.37362        -0.69647        -0.92371
C           4.66886        -0.52608        -0.70257
C           5.83279        -1.19452        -1.47761
C           7.32116        -1.65050        -1.78285
C           7.50442        -2.56537        -3.35691
C           8.80932        -2.55373        -3.35130
C           9.54920        -3.23373        -4.23073
C          10.84464        -3.19000        -4.17038
C          11.66190        -3.87494        -5.06318
C          12.94507        -4.03844        -5.27651
N          13.46469        -4.76410        -6.22202
C          14.42301        -4.27988        -5.59113
C          15.60953        -4.51348        -5.89520
C          14.36989        -3.66155        -4.78475
C          13.66880        -2.55497        -3.34229
C          13.16070        -1.58603        -2.08147
C          11.30989        -1.06947        -1.40791
C           9.43090        -0.94893        -1.25370
C           7.47564        -1.23001        -1.89619
C           5.51365        -1.71731        -2.32764
N           3.68064        -1.51100        -1.98933
H           0.41462         0.58997         0.75476
H           0.35736        -0.53216        -0.70754
H           2.79354         0.56426         0.72112
H           5.04011         0.02869         0.02292
H           6.91657        -0.52358        -0.72685
H           6.70603        -2.99063        -3.92354
H           9.34288        -2.01359        -2.63171
H           8.92922        -3.74001        -4.88746
H          11.10503        -2.58003        -3.37544
H          11.08721        -4.42210        -5.77630
H          15.86835        -3.93485        -5.14143
H          15.83259        -5.33965        -6.97205
H          12.62289        -2.49096        -3.25978
H          14.47076        -1.41356        -1.85512
H          11.41836        -1.65178        -2.18695
H          10.44953        -0.34739        -0.46696
H           4.67326        -2.31660        -3.06408
H           2.47332        -1.72990        -2.27379

