%chk=CdCc1c2cqccccc3nc-3c1dNrCdC2.chk
%NProcShared=20
# opt freq b3lyp/6-31g(2df,p)

Title Card Required 

0  1
C           0.89757         0.20389         0.08789
C           2.16920        -0.12889        -0.16913
C           2.67851        -1.26728        -1.04833
C           4.12259        -1.30688        -1.07892
C           5.13630        -2.13526        -1.71870
C           5.03122        -3.18291        -2.52782
C           3.70397        -3.47602        -2.75419
C           2.92860        -4.29952        -3.39018
C           1.04066        -3.98729        -3.14445
C           0.61205        -4.98392        -3.91921
N          -0.42092        -4.44322        -3.50119
C           1.13833        -3.91981        -3.10103
C           1.33684        -2.32076        -1.86200
N           0.21980        -1.79280        -1.45421
C           6.20346        -1.40156        -1.15204
C           5.31809        -0.57691        -0.51514
H           0.54045         1.00738         0.70845
H           0.05655        -0.31575        -0.31344
H           2.89800         0.51792         0.33042
H           5.76333        -3.79541        -3.00087
H           3.15619        -2.78934        -2.22386
H           3.20056        -5.11965        -4.02362
H          -0.10491        -3.20353        -2.54387
H          -0.69751        -2.12297        -1.70921
H           7.25447        -1.63174        -1.32981
H           5.47713         0.28615         0.15142

