%chk=CdNc1cccc2cqcc[nH]1rCdNSCdCCdCS2.chk
%NProcShared=20
# opt freq b3lyp/6-31g(2df,p)

Title Card Required 

0  1
C           1.27416         0.12936        -0.10714
N           2.62154         0.09103        -0.05875
C           3.53417         0.80762        -0.96340
C           5.05908         0.93685        -1.12654
C           5.64514         2.21048        -2.73441
C           6.98163         2.76087        -3.42923
C           8.48697         3.50601        -4.36991
C           8.86960         2.57849        -3.19899
C           8.40344         1.52269        -1.86612
C           7.05604         0.99163        -1.19570
N           5.13708         1.15942        -1.40752
C          10.22064         2.67780        -3.32437
N          11.31657         2.29793        -2.84480
S          12.26189         3.05063        -3.79504
C          13.59819         3.54503        -4.41917
C          13.11574         4.40134        -5.50021
C          14.42280         4.57156        -5.71509
C          12.66867         4.76465        -5.95885
S          10.41727         4.41705        -5.52004
H           0.60388        -0.45483         0.63035
H           0.57898         0.68490        -0.80847
H           5.32237         0.11573        -0.08994
H           4.70120         2.57040        -3.18878
H           6.98426         2.11661        -2.61590
H           9.50217         1.30992        -1.59751
H           7.55777         0.34366        -0.37769
H           4.19698         1.72653        -2.12346
H          10.29049         3.29260        -4.10049
H          14.42640         3.11839        -3.88057
H          13.48318         5.49168        -6.87668
H          15.40674         4.10007        -5.11987
H          14.36932         4.97610        -6.22580

