%chk=CdNC1dNOCdCCdNCdCNdC1[N]CCNN.chk
%NProcShared=20
# opt freq b3lyp/6-31g(2df,p)

Title Card Required 

0  2
C           1.37754        -0.36634        -0.34115
N           2.65287        -0.83579        -0.78001
C           3.92348        -1.77033        -1.65533
N           4.68512        -1.01158        -0.94433
O           5.43621        -1.71533        -1.60401
C           6.61412        -1.50465        -1.40642
C           7.34071        -2.22565        -2.08188
C           8.65694        -2.11436        -1.97778
N           8.68756        -2.98900        -2.79571
C           9.72063        -3.45695        -3.23433
C           8.50026        -4.15955        -3.89214
N           6.47934        -3.91032        -3.65819
C           4.95928        -3.19507        -2.98822
N           3.13328        -3.06264        -2.86393
C           1.11225        -3.02617        -2.83007
C          -0.86466        -2.62888        -2.45152
N          -2.02010        -3.60367        -3.39008
N          -3.52877        -3.37752        -3.16720
H           0.70945         0.52835         0.49678
H           0.46491        -0.81164        -0.75807
H           7.05690        -0.87635        -0.81831
H           6.74347        -2.80503        -2.62546
H           9.40791        -1.59497        -1.49113
H          10.87260        -3.02621        -2.83114
H           9.81896        -4.73637        -4.43232
H           0.68463        -3.95572        -2.42885
H           0.68408        -2.68575        -3.78416
H          -1.47104        -1.67668        -2.75819
H          -1.47303        -2.86686        -1.48675
H          -1.88873        -4.58189        -3.12397
H          -3.83972        -2.44529        -3.43374
H          -3.84343        -3.57991        -2.21683

