%chk=CdNCCqONrdS1CdCCdCC1d[S][S].chk
%NProcShared=20
# opt freq b3lyp/6-31g(2df,p)

Title Card Required 

0  1
C           1.04875         0.11142        -0.01625
N           2.31821         0.01005        -0.17309
C           3.18900         1.18149        -0.11092
C           4.65313         0.74525         0.02909
O           5.11041        -0.51524        -0.09467
N           4.20619        -1.58071         0.24409
S           6.05119         1.87767         0.11107
C           6.28426         2.02363        -1.63120
C           6.43159         3.22511        -2.20007
C           6.26814         4.48991        -1.52618
C           5.76382         4.64642        -0.29099
C           5.40899         3.45815         0.52163
S           4.81706         3.78574         2.13431
S           4.69150         2.05892         3.20692
H           0.46020        -0.81947         0.03500
H           0.49492         1.05578         0.05102
H           2.89887         1.83386         0.71937
H           3.06780         1.75498        -1.03709
H           4.79922        -2.38639         0.07468
H           3.55815        -1.50494        -0.54624
H           6.39318         1.13102        -2.24168
H           6.69337         3.25961        -3.25581
H           6.55013         5.36509        -2.10853
H           5.65554         5.63978         0.13088

