%chk=CN1CdCCdCCdCCdNCdCCdNCdC1SN.chk
%NProcShared=20
# opt freq b3lyp/6-31g(2df,p)

Title Card Required 

0  1
C           3.41668         0.23692        -0.32638
N           5.71908         0.51965        -0.84228
C           3.70146         0.61573        -1.03618
C           4.59492         0.94739        -1.66093
C           5.05658         1.51318        -2.75306
C           6.37380         1.56020        -2.89033
C           7.17234         2.03747        -3.69512
C           8.37889         2.05620        -3.73701
C           9.07631         2.59941        -4.75082
N          10.14396         2.84381        -5.21205
C          10.93123         3.30194        -6.06863
C          11.70091         2.84804        -5.21854
C          12.72450         3.00857        -5.51470
N          11.42177         2.24439        -4.06391
C           9.82534         1.49054        -2.68111
C           7.87327         0.88712        -1.49546
S           6.49540        -0.11780         0.37124
N           4.82048        -0.83482         2.01006
H           1.79461         0.49790        -0.81743
H           1.93037         0.55054         0.38111
H           1.93062        -0.52752        -0.19464
H           2.76209         1.10710        -1.95800
H           5.15829         1.22664        -2.17995
H           4.53214         1.89368        -3.42558
H           6.49601         1.18094        -1.99341
H           6.76546         2.43592        -4.44352
H           8.42429         1.53208        -2.79687
H           8.73553         3.03357        -5.56483
H          10.87954         3.76200        -6.92961
H          13.23612         2.61123        -4.77501
H          12.95820         3.85242        -7.09728
H          11.21354         1.88145        -3.39579
H           3.90182        -1.64249         2.95941
H           4.32680        -0.93220         3.42975

