%chk=CN1CdCCdCCdCCdC2SCdCCdCC21N.chk
%NProcShared=20
# opt freq b3lyp/6-31g(2df,p)

Title Card Required 

0  1
C           4.30998        -0.88784        -1.95965
N           6.31434        -1.74190        -3.00390
C           4.69431        -1.70889        -1.78068
C           5.48666        -1.68810        -0.64282
C           5.58411        -3.06452        -1.43480
C           6.88609        -2.65338        -1.17326
C           7.47248        -3.48075        -2.06357
C           8.70495        -3.07286        -1.71299
C           9.22816        -4.16826        -2.53930
C          10.11958        -3.36471        -3.06030
S          12.01936        -2.75495        -2.29286
C          13.01902        -1.92155        -3.59927
C          13.31204        -2.35409        -4.80854
C          12.24595        -3.37561        -4.92165
C          10.48529        -3.24104        -4.43881
C           8.30471        -2.62166        -3.75745
N           9.46897        -4.10493        -4.89871
H           3.32559        -0.33039        -0.75083
H           3.07562        -1.18150        -0.82686
H           2.76166        -0.49508        -1.64054
H           3.14014        -2.11441        -1.80287
H           5.27541        -0.51460        -0.30017
H           4.68957        -3.13131        -2.49760
H           7.33613        -1.42915        -1.14465
H           6.91896        -3.79127        -3.12496
H           9.47809        -2.18608        -1.90203
H           8.65913        -4.80832        -3.54722
H          13.23415        -0.89315        -3.47555
H          13.74512        -1.65788        -5.57464
H          13.61448        -3.84832        -5.52655
H          11.58013        -4.39587        -4.41352
H          10.49346        -5.13693        -4.96461
H          10.39051        -4.42657        -5.81957

