%chk=Cn1cccc2cccncncc3cc-3c-2c1.chk
%NProcShared=20
# opt freq b3lyp/6-31g(2df,p)

Title Card Required 

0  1
C           1.45941        -0.11579         0.04318
N           3.56079        -0.45545         0.02846
C           3.28611         1.27315         0.04377
C           4.49487         1.71412         0.04550
C           5.59796         0.79093         0.03792
C           5.93683        -0.61241         0.00132
C           7.31240        -1.19225         0.15320
C           8.09416        -0.02368         0.08366
C           9.10549        -0.80829         0.21079
N          10.01216         0.08244         0.05659
C          10.91473        -0.68775         0.56664
N          12.43996        -0.01826         0.15790
C          13.27436        -1.04825         0.15979
C          12.07448        -1.21857        -0.38922
C          12.15101        -2.31731        -0.32220
C          10.12838        -2.10301        -0.36464
C           7.56878        -1.72086        -0.20003
C           5.49710        -1.49456        -0.05996
H           0.72978         1.07163         0.04539
H           0.70543        -0.44146         0.93203
H           0.70493        -0.44137        -0.84116
H           2.44979         2.15728         0.04612
H           4.72933         2.74555         0.05053
H           6.47286         1.29901         0.02869
H           6.79922        -2.82070         0.10475
H           7.92056         0.88466         0.03689
H           8.86668        -2.55484         0.21783
H          11.08428        -2.46653         0.53575
H          13.59312        -2.81116         0.21196
H          14.06669        -2.00060        -0.22585
H           3.84944        -1.77044         0.03409

