%chk=CN1CdCCdCCdCCdCCdCCdCCdC1CS.chk
%NProcShared=20
# opt freq b3lyp/6-31g(2df,p)

Title Card Required 

0  1
C           2.67421         0.38479        -0.19364
N           5.16708         1.14806        -0.48899
C           3.21139         1.19560        -0.50968
C           4.60999         1.39793        -0.58686
C           5.17994         2.70289        -1.09638
C           6.34469         2.75952        -1.11731
C           7.25924         3.65992        -1.46724
C           8.42022         3.69845        -1.48084
C           9.12231         4.85396        -1.93111
C          10.36844         5.01943        -1.99586
C          11.07127         6.19670        -2.45309
C          12.35544         5.98708        -2.37055
C          13.10723         6.66574        -2.63653
C          12.04564         4.84457        -1.93284
C           9.93421         3.20232        -1.29048
C           7.66979         1.75498        -0.72982
C           5.66742        -0.12392        -0.00189
S           4.27037        -2.43932         0.89647
H           0.88047         0.85186        -0.37580
H           1.06605        -0.07699         0.74326
H           1.06611        -0.58900        -0.57405
H           2.61704         2.01315        -0.82717
H           6.29520         0.77647        -0.34842
H           4.64179         3.29409        -1.32500
H           6.35103         1.83216        -0.75693
H           6.82913         4.45625        -1.77678
H           8.95936         2.51508        -1.01952
H           8.91054         5.70569        -2.26239
H          11.33928         3.56400        -1.43218
H          11.03055         7.01743        -2.77225
H          13.61023         4.88053        -1.94106
H          13.17701         8.10990        -3.19685
H          13.90769         5.79301        -2.29696
H          11.55023         4.41267        -1.75280
H           3.97499        -1.19164         0.03675
H           3.97577        -0.93410         0.69871
H           4.33519        -4.06587         0.35723

