%chk=CNdCCc1ccc2ccccccc-2c2cc1CdN2.chk
%NProcShared=20
# opt freq b3lyp/6-31g(2df,p)

Title Card Required 

0  1
C           1.02319        -0.10208        -0.01671
N           2.47980        -0.08909        -0.04273
C           3.08553        -0.59867         0.97735
C           4.59969        -0.60244         0.98479
C           5.87091        -0.98184         1.74375
C           6.17978        -1.79623         3.36474
C           7.11519        -2.41491         4.60593
C           9.03237        -2.23248         4.25181
C           8.82947        -2.80043         5.38407
C           9.83895        -3.13290         6.05080
C          10.56381        -3.57968         6.94816
C          11.89631        -3.30617         6.40640
C          12.62277        -3.78098         7.33802
C          12.09055        -2.91000         5.57531
C          11.03879        -2.14902         4.12186
C           9.78166        -1.44062         2.63470
C           9.15358        -0.70777         1.19193
C           7.18962        -0.51437         0.80791
C           6.84457        -1.06476         1.92378
N           8.45414        -0.90592         1.59690
H           0.63899         0.35749        -0.93670
H           0.63241         0.47275         0.82624
H           0.63241        -1.12131         0.02994
H           2.57068        -1.02728         1.83537
H           4.88025         0.45363         0.88310
H           4.88026        -1.15530         0.07937
H           7.81296        -1.43655         2.61634
H           6.16798        -2.59395         4.97257
H           8.09565        -3.11150         6.00742
H          10.49863        -2.82780         5.45674
H           9.97742        -3.95249         7.69064
H          13.46555        -2.95370         5.70570
H          12.08144        -4.34884         8.48419
H          13.31224        -3.47147         6.71281
H           9.95489        -0.34340         0.46737
H           7.50508        -1.82502         3.46942

