%chk=CNqCdNNrc1cccc2c1dNCdCCdCCdCCdCNd2.chk
%NProcShared=20
# opt freq b3lyp/6-31g(2df,p)

Title Card Required 

0  1
C           0.92665        -0.05344        -0.06966
N           2.26639        -0.65581        -0.72136
C           3.02182         1.00947        -0.52504
N           2.45197         2.28957        -0.68705
N           3.16920         3.48565        -0.96195
C           2.34670        -2.37670        -1.63535
C           3.32561        -1.87724        -0.10825
C           4.14477        -2.54224         1.36896
C           3.81540        -3.63410         0.51779
C           2.77553        -3.73870        -1.27079
C           1.61577        -3.97126        -3.27505
N           0.79778        -4.94642        -4.76508
C           0.02380        -6.40646        -6.31263
C          -1.21153        -7.31294        -7.08462
C          -0.18453        -7.86893        -5.65857
C          -0.07170        -7.06769        -4.60136
C           1.08394        -7.06040        -3.90217
C           1.05795        -5.99231        -3.15771
C           2.09574        -5.93773        -2.31339
C           2.21068        -4.93901        -1.55709
N           3.15873        -4.90586        -0.73642
H           0.59862         1.00906        -0.30453
H           0.59727        -0.21177         0.98060
H           0.44052        -0.67968        -0.73030
H           4.15656         1.15095        -0.37260
H           2.67914         4.36205        -1.23711
H           4.18154         3.54954        -1.00778
H           4.10292        -0.83737         0.77994
H           4.76484        -2.37280         2.66321
H           4.60840        -4.41213         1.23624
H          -0.64043        -7.91196        -7.00814
H          -1.99542        -6.71953        -7.61215
H           0.19562        -8.87712        -5.91975
H          -0.76253        -5.79692        -5.12599
H           1.53926        -7.96157        -3.99538
H           0.13451        -4.85554        -3.37798
H           2.64979        -6.74369        -2.12555
H           1.25301        -3.85661        -1.69781

