%chk=CONC1dCCdCCdC2C1dCCdNNdC2[O].chk
%NProcShared=20
# opt freq b3lyp/6-31g(2df,p)

Title Card Required 

0  2
C           0.84497         0.09569        -0.08746
O           2.25649         0.06859        -0.09140
N           2.60911        -1.19444         0.39812
C           3.91544        -1.58692         0.13777
C           4.80772        -0.77676         0.76344
C           6.21755        -0.72842         0.97877
C           7.07943        -1.62610         0.54174
C           6.77308        -2.76907        -0.26019
C           5.70043        -3.38270        -0.83388
C           4.11524        -2.86277        -0.72089
C           2.96815        -3.49370        -1.34246
C           3.11215        -4.74342        -2.15876
N           4.31525        -4.91205        -2.07077
N           5.37758        -5.56412        -2.34246
C           6.20446        -4.78533        -1.69553
O           7.43784        -4.95087        -1.61676
H           0.51459         1.11379        -0.28737
H           0.47376        -0.22689         0.89018
H           0.48641        -0.57503        -0.87354
H           1.95862        -1.93135         0.17391
H           4.39046         0.07306         1.30915
H           6.61361         0.08332         1.59498
H           8.13527        -1.49939         0.80505
H           7.74840        -3.22147        -0.40914
H           1.90299        -3.24408        -1.35220
H           2.33509        -5.33364        -2.68701

