%chk=CSC1dCCdCCdCCdCCdCdC1[SH]dS.chk
%NProcShared=20
# opt freq b3lyp/6-31g(2df,p)

Title Card Required 

0  1
C           1.10685         0.13834         0.04822
S           3.09303         1.14253         0.37539
C           4.37838         2.89258         1.14069
C           5.00674         1.80873         0.58086
C           5.43119         3.16952         0.44473
C           6.70252         3.25011         0.70074
C           7.20011         4.47301         0.78422
C           8.48520         4.56439         0.97425
C           8.46920         5.95963         0.94067
C           9.57146         6.30998         1.50407
C           8.11419         6.79280         2.41038
C           6.51185         5.91998         2.25352
C           5.03264         4.68549         1.91931
S           2.77706         3.94678         1.57976
S           0.56368         4.14095         1.02226
H           0.72148        -0.99116        -0.23382
H           0.58739         0.67458        -0.75523
H           0.57986         0.24566         0.98959
H           5.63250         1.03270         0.15230
H           4.49124         4.31930         0.31764
H           7.36138         2.46791         0.63206
H           6.35323         5.47463         0.55504
H           9.38253         3.93935         1.00159
H           7.51359         7.04170         0.89791
H          10.64872         5.95324         1.50538
H           9.18829         7.98551         2.13199
H           1.86222         2.51646         1.34560

