%chk=CSCCqdSrC1dCdCCdCdC1SS.chk
%NProcShared=20
# opt freq b3lyp/6-31g(2df,p)

Title Card Required 

0  1
C           1.03238        -0.10288         0.01426
S           2.80738        -0.05603        -0.25672
C           3.54277        -0.74652         1.29409
C           5.10336        -0.87615         1.18563
S           5.99748         0.03917         0.03134
C           5.83461        -1.76774         2.25502
C           7.06859        -2.14841         1.96196
C           8.30366        -1.71224         2.25136
C           8.16829        -0.36176         2.90939
C           7.03126        -0.33661         3.59645
C           5.89755        -1.04912         3.59698
S           4.50414        -0.64436         4.57623
S           3.61200        -2.40166         5.30226
H           0.57956         0.30712        -0.89648
H           0.71092         0.52166         0.85047
H           0.67919        -1.12848         0.12690
H           3.13225        -1.74172         1.49276
H           3.25690        -0.08323         2.12009
H           9.01200        -2.34301         2.78304
H           8.44564         0.42057         2.17524
H           2.24853        -2.23486         5.27270

