%chk=Nc1ccccnc2[nH]c1dCCdCCdCCdCCd2.chk
%NProcShared=20
# opt freq b3lyp/6-31g(2df,p)

Title Card Required 

0  1
N           2.83489         0.45415         0.44907
C           4.82083         0.65521         0.64701
C           3.82255        -0.34996        -0.34253
C           4.80706        -0.98065        -0.96340
C           5.23069        -1.86182        -1.83087
C           6.56331        -2.04714        -2.01330
N           7.64215        -2.54695        -2.50534
C           8.72252        -1.59441        -1.56762
N           8.31391        -0.17371        -0.16902
C           6.93654         1.04731         1.03301
C           7.97842         2.29004         2.25641
C           9.24940         3.27442         3.22547
C           8.50139         2.34257         2.30812
C           9.74471         1.65470         1.63095
C           9.24844         0.83725         0.82622
C           9.88444        -0.40293        -0.39496
C           8.20263        -1.24538        -1.22391
C          10.32566        -1.00355        -0.98596
H           1.72794        -0.22695        -0.22143
H           1.46410         0.64995         0.64183
H           3.02610        -1.23667        -1.21544
H           5.46932        -0.42363        -0.41505
H           4.83113        -2.49383        -2.45305
H           6.43671        -1.33006        -1.30738
H           9.28873        -1.32474        -1.30214
H           7.76443         3.45944         3.40761
H          10.42669         3.48272         3.43053
H           6.71399         2.32756         2.29334
H          10.73343         1.78014         1.75444
H           7.97493         0.58250         0.57543
H          10.88448         0.08035         0.08127
H           7.31911        -0.80089        -0.78644
H          10.80833        -1.71127        -1.68266

