%chk=Nc1cccc2c1dNCqSrdCCdNCdCSCd2.chk
%NProcShared=20
# opt freq b3lyp/6-31g(2df,p)

Title Card Required 

0  1
N           1.53498        -1.03223        -0.21047
C           2.87959        -2.46010        -0.48223
C           3.13024        -0.56334        -0.32957
C           4.39961         0.52470         0.23023
C           4.93253        -0.82725         0.08175
C           4.13695        -2.68726        -0.24345
C           3.40090        -4.69505        -0.74194
N           3.97329        -6.72979        -1.03489
C           4.98130        -8.65086        -1.23130
S           5.76559       -11.09995        -1.15631
C           6.37292        -9.63530        -0.95749
C           5.47335        -8.48876        -0.68310
N           6.30254        -7.42179        -0.59894
C           5.58581        -6.33867        -0.29407
C           5.90240        -5.15302        -0.45217
S           5.24990        -3.91683         0.04605
C           5.47440        -2.47828        -0.16496
H           0.99592         0.30271        -0.19065
H           0.55158        -1.12672         0.02984
H           2.78397         0.98083        -0.48920
H           4.84866         1.80931         0.65811
H           6.15861        -0.24575         0.16426
H           6.32585       -13.00903        -1.31037
H           7.53584        -9.74521        -0.91101
H           3.81478        -8.44205        -0.49788
H           4.34306        -5.91477         0.15366
H           6.83984        -5.08841        -0.43957
H           6.44907        -2.20066        -0.07887

