%chk=Nc1csccccc2cqc1dSrdCqCCSrCCd2.chk
%NProcShared=20
# opt freq b3lyp/6-31g(2df,p)

Title Card Required 

0  1
N           2.31009         0.12913        -0.20577
C           4.32168         0.37881        -0.64352
C           3.04677         0.82090        -1.22391
S           4.29001         1.29494        -1.90416
C           5.46588         1.80720        -2.64796
C           6.73475         1.85053        -2.63357
C           7.39723         2.52626        -3.53067
C           8.60657         2.28147        -2.59222
C           9.40796         2.43389        -3.72707
C           8.60715         1.46494        -2.56244
C           6.57314         0.74078        -1.35085
S           5.49942        -0.24872         0.32797
C          10.10141         2.45225        -3.81678
C          11.09202         3.72142        -5.49459
C           9.85285         4.36439        -6.39258
S           8.90974         5.16432        -7.62930
C          11.88476         3.15603        -4.58326
C           9.77411         3.17316        -4.65101
H           0.98454         0.46319        -0.69714
H           1.11188        -0.35678         0.50863
H           2.44093         1.30322        -1.92216
H           5.01236         2.26803        -3.34004
H           7.77056         1.14543        -1.54157
H           7.17944         2.95741        -4.40649
H          10.11519         1.65717        -2.33827
H          11.53911         3.74041        -6.96550
H          11.53766         5.10817        -6.03052
H           9.55887         4.96450        -5.40102
H           9.55944         3.21333        -6.59987
H           9.29160         6.41754        -7.41883
H          13.15737         4.12527        -4.87022
H          13.35606         2.98613        -5.21102
H           8.70968         3.63756        -5.32940

