%chk=NC1dCCdCN2NdC3CdCCdCCdCCdC3CdCCdNCdCCdC12.chk
%NProcShared=20
# opt freq b3lyp/6-31g(2df,p)

Title Card Required 

0  1
N           1.50063         0.55699        -0.45460
C           2.50249         0.25203         0.37300
C           3.33910         1.22082         0.10508
C           4.69777         0.95798         0.01324
C           5.06902        -0.35958         0.00463
N           4.04424        -1.66044         0.20609
N           4.59315        -3.15668        -0.21966
C           4.25583        -4.50457        -0.27928
C           5.44514        -5.13134         0.13402
C           4.97716        -6.22301         0.65007
C           5.78122        -7.31400         0.42710
C           5.00593        -8.28221         0.85760
C           5.27455        -9.45776         0.24049
C           4.03425        -9.34289        -0.41944
C           3.20327        -7.74092        -0.97021
C           3.11858        -5.90797        -0.91214
C           2.00613        -4.40306        -1.09123
C           0.77927        -3.42430        -0.97938
C          -0.05228        -1.72063        -1.13647
N          -1.29849        -1.15918        -0.99447
C          -1.28364        -0.21672         0.23201
C          -0.63430        -0.95908         1.26238
C           1.13977        -1.67771         1.15007
C           2.55545        -1.17966         0.69976
H           0.77892         1.06377         0.02970
H           1.42791        -0.41526        -0.60577
H           2.81050         2.14865        -0.12263
H           5.23768         1.91214        -0.06343
H           6.17435        -0.43727        -0.06848
H           6.43143        -4.85559        -0.13548
H           3.89791        -6.42446         0.89327
H           6.72926        -7.42017        -0.09688
H           3.83970        -8.17671         1.08346
H           6.29758        -9.88053         0.03347
H           3.66968       -10.52537        -0.24804
H           3.85521        -8.76630        -1.46019
H           2.63457        -3.46165        -0.89356
H           0.10458        -3.65340        -0.16779
H           0.22704        -0.93362        -0.48922
H          -1.25970         0.89367         0.02008
H          -1.89225        -1.31706         0.99399
H           1.41896        -2.76916         1.19152

