%chk=NC1dCCdCCdc2ncccc2d[SH]CdC1.chk
%NProcShared=20
# opt freq b3lyp/6-31g(2df,p)

Title Card Required 

0  1
N           1.24474        -0.37341         0.01517
C           2.58479        -0.39739         0.44130
C           3.20105         0.14614         1.51339
C           4.73640         0.24035         1.37410
C           5.56017        -0.48429         2.13053
C           6.86846        -1.07756         1.78006
C           7.36352        -2.15518         2.37104
N           8.73614        -2.44278         2.41249
C           9.18721        -2.91396         3.51929
C           8.37542        -3.25227         4.72098
C           7.04385        -3.42617         4.52508
C           6.42887        -2.99666         3.17632
S           4.47254        -3.26101         2.60387
C           4.22093        -2.51530         0.69014
C           3.45163        -1.54521         0.03722
H           0.58297        -0.43986         0.78717
H           0.95779         0.50977        -0.43901
H           2.85076        -0.46808         2.36332
H           5.09954         0.51202         0.37453
H           5.11771        -0.87711         3.03856
H           7.49227        -0.59383         1.02737
H          10.27841        -3.13915         3.63004
H           8.92663        -3.40467         5.65219
H           6.45379        -3.77862         5.36269
H           3.94574        -2.45102         3.50750
H           4.93038        -2.99424         0.03225
H           3.76647        -1.22781        -0.97860

