%chk=NC1dCCdCCdC2CdCSqdSrC2dN1.chk
%NProcShared=20
# opt freq b3lyp/6-31g(2df,p)

Title Card Required 

0  1
N           1.18114         0.02677        -0.15666
C           2.54476         0.05859        -0.22634
C           3.22088        -0.97999         0.33030
C           4.65184        -0.99848         0.54289
C           5.25326        -0.12505         1.36698
C           4.47252         0.80781         2.19695
C           3.54107         1.61967         1.73325
C           2.79561         2.72426         2.35417
C           3.65057         3.75624         2.28159
S           4.06996         3.80141         0.30340
S           6.04576         3.92867         0.38033
C           3.63286         1.94668         0.28694
N           3.18551         1.21984        -0.68821
H           0.70158        -0.74256         0.29168
H           0.66446         0.72654        -0.66920
H           2.68276        -1.79666         0.81017
H           5.21404        -1.75088        -0.00605
H           6.33686        -0.11642         1.44891
H           4.73050         0.80889         3.25725
H           1.90319         2.92155         1.71916
H           4.42578         3.67848         3.06176

