%chk=NC1dCqNrNdS2Sc3ccc2cc3CdCCdC1.chk
%NProcShared=20
# opt freq b3lyp/6-31g(2df,p)

Title Card Required 

0  1
N           2.05369        -0.83001         0.16891
C           3.42315        -1.04311         0.66259
C           3.86798        -0.86216         1.99081
N           2.77298        -0.78183         2.87206
N           5.05022        -1.37091         2.67868
S           6.02309        -0.55591         3.56749
S           7.47481        -0.18156         2.13820
C           8.61013        -1.48892         2.63862
C           9.28026        -0.87017         3.83618
C           8.65304        -1.08907         4.97085
C           7.32699        -1.87818         4.76987
C           7.77869        -3.04426         4.20762
C           8.10767        -2.79535         2.75788
C           7.12479        -3.51567         1.84457
C           6.52126        -2.88454         0.80922
C           5.09974        -2.90042         0.29903
C           4.36935        -1.84618        -0.22416
H           1.41690        -0.43958         0.86406
H           1.96879        -0.17697        -0.61636
H           1.95290        -1.13491         2.38090
H           3.03336        -1.52055         3.52210
H           9.69190         0.15992         3.72979
H           9.22739        -0.93727         5.91161
H           8.54656        -3.64711         4.74680
H           6.74369        -4.41499         2.35675
H           7.02494        -1.98922         0.49133
H           4.95351        -3.82982        -0.23810
H           4.86436        -1.05221        -0.79528

