%chk=NC1dCd[SH]C2dCNd[C]CdCCdCSCdCC2dCCdC1.chk
%NProcShared=20
# opt freq b3lyp/6-31g(2df,p)

Title Card Required 

0  2
N           1.16482        -0.03908         0.09819
C           2.86955         0.16900        -0.20176
C           3.28690         0.72013        -1.35154
S           3.43180         1.64679        -3.15506
C           1.94808         2.75183        -5.04298
C           3.35181         2.64923        -4.81152
N           2.70789         3.18151        -5.76724
C           2.96032         3.72309        -6.72248
C           2.19312         4.32063        -7.81324
C           2.97491         4.75874        -8.52914
C           2.11018         5.21875        -9.15868
C           2.15258         5.87598       -10.53666
S          -0.35277         6.22394       -11.24289
C           1.33923         6.08695       -11.04216
C           0.78900         4.91917        -9.26362
C           0.94919         3.72357        -6.87852
C           0.97253         2.59842        -4.89043
C           0.95369         1.37231        -2.76491
C           1.74999         0.38805        -1.06661
H           0.39316         0.34771        -0.59611
H           0.56828        -0.50287         0.74266
H           4.73564         0.41877        -2.95392
H           4.38609         2.67252        -4.81856
H           0.64545         4.41447        -8.00705
H           3.58491         5.04474        -9.07185
H          -0.04822         4.96671        -8.77020
H           3.00905         6.21995       -11.14825
H           1.98543         6.99205       -12.53625
H           0.95781         5.98601       -10.81812
H           1.30500         1.81496        -3.38585
H          -0.60781         1.08686        -2.19602
H           2.64716        -0.42084         0.40720

