%chk=Nc1nccc2c1dCCdCCdCCdCCdCCd2.chk
%NProcShared=20
# opt freq b3lyp/6-31g(2df,p)

Title Card Required 

0  1
N           1.57796        -1.15126        -0.26669
C           2.65957        -2.88734        -0.55431
N           3.08869        -1.08564        -0.31901
C           4.21114         0.38454        -0.04404
C           4.71502        -1.18195         0.20032
C           4.03064        -3.14116        -0.37753
C           3.32785        -5.32391        -0.99559
C           3.59428        -7.44551        -1.60831
C           4.00962        -9.92009        -1.71098
C           4.32109        -9.23639        -1.00169
C           5.50629        -9.38328        -0.97429
C           4.60349        -8.42417        -0.72334
C           5.41111        -7.24104        -0.65126
C           4.76308        -6.20845        -0.59235
C           5.25061        -4.93572        -0.31909
C           4.59041        -3.83103        -0.26025
C           5.21480        -2.59928         0.04941
H           0.99020         0.29563        -0.07192
H           0.51386        -0.92117        -0.11602
H           4.94784         1.82461        -0.26689
H           5.81262        -0.24709         0.87550
H           2.99939        -9.17227        -1.61252
H           5.14074       -11.37084        -1.45161
H           3.16940       -10.44651        -1.61237
H           6.27772        -9.88817        -0.96239
H           2.75866        -8.25764        -0.99412
H           6.31809        -7.32081        -0.51136
H           3.15002        -6.56213        -0.82502
H           6.19073        -4.85258        -0.12329
H           3.08194        -4.12226        -0.55530
H           6.21526        -2.45342         0.28911

