%chk=Nd[SH]12CdC1CdCCdCC2dS.chk
%NProcShared=20
# opt freq b3lyp/6-31g(2df,p)

Title Card Required 

0  1
N           1.02517         0.06958         0.06727
S           2.60037         0.06958         0.06727
C           2.37759         2.48641        -0.91882
C           3.23438         1.43480        -0.81526
C           4.43419         1.62670        -1.41514
C           5.58857         0.97967        -1.30092
C           5.85842        -0.27191        -0.78615
C           5.05989        -1.31511        -0.78382
C           3.34804        -1.51851        -1.00659
S           2.55181        -2.65722        -1.83941
H           0.53292         0.77587         0.54486
H           2.11158         1.14811        -0.60165
H           1.98827         3.40984        -1.16527
H           4.45471         2.41643        -2.07916
H           6.41215         1.49304        -1.65192
H           6.78770        -0.40252        -0.35672
H           5.55503        -2.20434        -0.61315

