%chk=Ndc1c2c1dCSCdc1ccncc1dCSCdCCdCCdCd2.chk
%NProcShared=20
# opt freq b3lyp/6-31g(2df,p)

Title Card Required 

0  1
N           2.87353        -2.67240         0.06172
C           3.66497        -4.14634         0.36539
C           5.04740        -3.70336         0.16618
C           5.30621        -5.65440         0.36438
C           6.26572        -7.17828         0.08699
S           7.16803        -9.38725        -0.72776
C           7.53031       -11.40495        -1.93464
C           6.89813       -12.26698        -3.21665
C           6.70096       -13.56932        -4.24720
C           5.97869       -13.41210        -5.42167
N           5.11880       -12.35801        -5.65219
C           5.04469       -11.49341        -4.71139
C           5.92667       -11.37382        -3.61920
C           5.88004       -10.22274        -3.03737
S           4.91355        -8.93485        -3.21398
C           5.36882        -7.75802        -2.18545
C           4.74193        -6.61670        -2.18701
C           5.43237        -5.48812        -1.77246
C           4.81280        -4.28139        -1.66773
C           5.61349        -3.19487        -0.28803
C           4.91843        -2.30680         0.31953
H           1.78221        -1.73860         0.06283
H           7.44697        -8.11865        -0.07778
H           8.06458       -11.99397        -1.27796
H           7.12981       -14.55778        -4.10164
H           5.96265       -14.14814        -6.24909
H           4.27865       -10.72293        -4.69379
H           6.65457       -10.13209        -2.41968
H           6.29049        -7.78914        -1.70900
H           3.89591        -6.32118        -2.70668
H           6.41788        -5.79363        -1.18381
H           3.71219        -3.99908        -1.80075
H           6.29918        -3.24032         1.02749

