%chk=NdC1CdCCdCCdCC2dNC2dCSCdNCdC1.chk
%NProcShared=20
# opt freq b3lyp/6-31g(2df,p)

Title Card Required 

0  1
N           1.14039        -0.47287         0.40145
C           2.20197        -0.94210         0.90788
C           3.33832        -1.82796         1.86392
C           4.57243        -1.21897         1.20670
C           5.51936        -1.89940         1.94111
C           6.80515        -1.78482         1.81746
C           7.43295        -2.62210         2.72114
C           8.73115        -2.72890         2.83641
C           9.17972        -3.63591         3.81535
N          10.15131        -4.14381         4.36353
C           8.89355        -4.62603         4.88400
C           7.53658        -4.68280         4.94527
S           6.26232        -5.55046         5.88174
C           4.39291        -4.93040         5.21251
N           3.47687        -4.21452         4.43986
C           2.79549        -3.25842         3.40794
C           2.96144        -2.14242         2.20347
H           0.26235        -0.78817         0.74175
H           1.66779        -1.79482         1.82819
H           4.80227        -0.48597         0.41559
H           5.09172        -2.58625         2.68244
H           7.26325        -1.13772         1.11903
H           6.69311        -3.13847         3.27846
H           9.36719        -2.13955         2.20031
H           6.86365        -4.15648         4.37720
H           5.08614        -4.40462         4.64502
H           1.82449        -3.57353         3.74801
H           2.76008        -1.00016         0.97063

