%chk=Ndc1cc[nH][c]nsc2c1dCNd2.chk
%NProcShared=20
# opt freq b3lyp/6-31g(2df,p)

Title Card Required 

0  2
N           3.88440         1.40873        -0.18607
C           5.63287         2.26187        -0.32736
C           3.78441         2.04042        -0.29069
C           5.44999         1.91065        -0.26920
N           5.45625         3.77561        -0.57808
C           7.09792         2.45926        -0.36007
N           6.10541         3.70395        -0.56623
S           8.39886         3.17965        -0.47938
C           9.31647         4.45395        -0.69046
C           7.50602         3.97770        -0.61153
C           8.51780         5.59946        -0.88014
N          10.27977         5.23493        -0.81976
H           2.78264         0.50012        -0.03558
H           2.55566         2.42419        -0.35425
H           5.16650         0.47434        -0.03131
H           4.28184         3.62489        -0.55312
H           9.66710         6.64589        -1.05347

