%chk=NdC1CdCCqCdSrdCCdCCdCd[SH]1.chk
%NProcShared=20
# opt freq b3lyp/6-31g(2df,p)

Title Card Required 

0  1
N           2.72598        -0.20815        -0.50973
C           3.67482        -1.04957        -0.11151
C           3.36225        -1.60129         1.13165
C           4.19828        -0.91660         1.99530
C           4.85136        -1.79480         2.92305
C           4.26367        -3.12927         3.33111
S           2.63673        -3.59220         3.41902
C           6.18513        -1.46421         3.07282
C           7.30090        -2.27511         3.51814
C           8.27879        -2.28715         2.56996
C           7.78029        -2.85789         1.26377
C           6.72958        -2.35991         0.49508
S           5.63563        -1.60426        -0.65960
H           1.85540        -0.38347         0.10828
H           2.37813        -1.89079         1.37870
H           4.82316        -0.11560         1.56838
H           4.98673        -3.90668         3.59433
H           6.54613        -0.62928         2.46081
H           6.92422        -3.27271         3.75614
H           9.02931        -1.49185         2.49545
H           8.05866        -3.92081         1.50405
H           6.16931        -0.40927        -0.77759

