%chk=Ndc1ccc2cqcc1rdCCdCCdCCdCdCd2.chk
%NProcShared=20
# opt freq b3lyp/6-31g(2df,p)

Title Card Required 

0  1
N           1.43150        -0.09410         0.12044
C           2.82346         0.02963        -0.08104
C           3.50077         0.86613        -1.44318
C           4.97495         1.19335        -1.97603
C           6.57218         1.83761        -3.02512
C           6.70363         1.01067        -1.67855
C           6.17492         0.06126        -0.13255
C           4.60263        -0.36699         0.56481
C           7.24453         1.67009        -2.75234
C           8.92373         1.46910        -2.42504
C           9.63211         2.05273        -3.37543
C          11.29254         2.32803        -3.82372
C          10.97544         3.26683        -5.35244
C          11.72871         2.77809        -4.55658
C           9.89433         2.85002        -4.67371
C           8.18740         2.41662        -3.96798
H           0.69944         0.35200        -0.60598
H           2.54784         1.11609        -1.85021
H           4.86942         0.58614        -0.98724
H           7.52096         0.18987        -0.34197
H           3.68656        -0.93013         1.48183
H           6.74335         2.55338        -4.19067
H           9.64997         1.10387        -1.83031
H           8.73150         2.97887        -4.88353
H          11.83472         1.82292        -3.00121
H          11.31516         3.79281        -6.20894
H          13.14288         2.66747        -4.37645

