%chk=NdC1CdCNdc2ccccc2dCCdNCdCC1.chk
%NProcShared=20
# opt freq b3lyp/6-31g(2df,p)

Title Card Required 

0  1
N           0.88994         0.29013         0.38388
C           2.18440         0.34469         0.52713
C           2.91171        -0.27961         1.79344
C           4.22347        -0.36091         2.07467
N           5.07579        -0.92845         2.96367
C           6.35423        -0.82566         2.62354
C           7.25425        -1.09414         3.77801
C           8.54671        -0.75860         3.78783
C           9.24151        -0.37484         2.59046
C           8.60615        -0.29926         1.41175
C           7.12906        -0.36043         1.27919
C           6.65421         0.01333         0.04475
C           5.27941         0.09178        -0.55911
N           4.74002         0.63154        -1.67510
C           2.86375         0.33338        -1.81421
C           2.16465         1.24961        -2.32129
C           3.00459         0.74241        -1.03883
H           0.38667        -0.20407         1.12474
H           2.22495        -0.72547         2.49869
H           4.85699         0.23442         1.50034
H           6.73855        -1.48732         4.64383
H           9.12131        -0.87371         4.70189
H          10.32083        -0.24765         2.66720
H           9.19885        -0.17659         0.50466
H           7.33898         0.33798        -0.72796
H           4.51403        -0.39889         0.01494
H           2.34708        -0.85598        -1.33497
H           1.22555         0.86558        -2.71649
H           3.52294         1.89720        -0.88961
H           3.85838        -0.68847        -1.60560

