%chk=NdC1CdC2CdCCdCSCdC2S1.chk
%NProcShared=20
# opt freq b3lyp/6-31g(2df,p)

Title Card Required 

0  1
N           1.32176         0.11980        -0.02238
C           2.59493        -0.02516         0.09387
C           3.33516        -1.28411         0.05479
C           4.62578        -1.14678         0.38782
C           5.49040        -2.31011         0.32249
C           6.73591        -1.95323         0.21467
C           7.94921        -2.38249         0.81169
C           8.60493        -1.28786         1.25049
S           7.73348         0.02829         2.15920
C           6.22585         0.69384         1.40117
C           5.07777         0.21806         0.80712
S           3.72291         1.30705         0.36955
H           0.84092        -0.78501        -0.11844
H           2.86661        -2.20987        -0.24363
H           5.12835        -3.31141         0.53046
H           6.91576        -0.94225        -0.16406
H           8.31630        -3.36187         0.52688
H           9.70161        -1.26256         1.26295
H           6.23884         1.77110         1.59038

