%chk=NdCCNdc1cc2cqcsc1dOrCdCNCS2.chk
%NProcShared=20
# opt freq b3lyp/6-31g(2df,p)

Title Card Required 

0  1
N           0.95640         0.02463        -0.13637
C           2.26146         0.01580        -0.08965
C           3.15759         0.76479        -1.11935
N           4.66147         0.86682        -0.69956
C           5.60928         1.28217        -1.52916
C           7.05347         2.43693        -1.60595
C           8.38188         2.34225        -2.31477
C           9.27983         1.15708        -2.33301
C           9.16338         0.47732        -1.26730
S           7.49570        -0.39879        -1.22317
C           6.04383         0.30656        -2.50569
O           5.78477         1.13817        -3.42729
C          10.28775         0.95242        -3.46408
C          11.59297         1.12668        -3.47665
N          12.01570         2.31575        -4.16071
C          11.80769         3.37516        -3.17521
S           9.65750         3.81458        -2.97173
H           0.54878        -0.53440         0.63314
H           2.75040        -0.57083         0.69884
H           2.78479         1.79916        -1.10341
H           2.89471         0.32283        -2.09601
H           6.96709         1.86959        -0.64393
H          10.08920         0.05576        -0.75391
H           9.86014         1.35982        -4.38143
H          12.17761         1.02231        -2.53261
H          11.53433         2.55085        -5.03173
H          12.39306         4.30895        -3.04848
H          12.56246         2.90193        -2.51162

