%chk=NdCdCdNC1dCCdCCqNrdCCqNrdCCdCCdCCdCCdC1.chk
%NProcShared=20
# opt freq b3lyp/6-31g(2df,p)

Title Card Required 

0  1
N           1.45717         0.00606         0.07779
C           3.19582        -0.04059         0.46040
C           4.97805        -0.17797         1.23247
N           6.69519        -0.34850         2.22836
C           8.73762        -0.59849         3.70197
C           7.79238        -0.29459         1.90651
C           8.07045        -0.48273         3.01650
C           9.56013        -0.35939         2.28858
C          10.31018        -0.61062         3.77169
N           8.93388        -0.91427         5.56520
C          11.47888        -0.58667         3.63032
C          12.53271        -0.82615         5.04383
N          11.43074        -1.11713         6.76173
C          13.55551        -0.76182         4.66413
C          14.21881        -0.92742         5.64182
C          15.33964        -0.92525         5.62881
C          15.41342        -1.09330         6.62089
C          17.09843        -1.19857         7.24218
C          17.63717        -1.45500         8.75579
C          15.91203        -1.28989         7.78118
C          13.28943        -1.07948         6.53904
C          11.10937        -0.87061         5.30647
H           0.45446         0.87299        -0.04268
H           7.56157        -0.04657         0.44196
H           7.09239        -0.57658         3.57041
H           9.71923        -0.21136         1.41482
H           8.00766        -0.87197         5.31390
H           9.59076        -0.99499         6.03990
H          11.83329        -0.45324         2.84261
H          10.44474        -1.10469         6.68791
H          11.77967        -1.24155         7.49564
H          14.00846        -0.65345         4.02439
H          13.00988        -1.24239         7.50099
H          16.16072        -0.88635         5.39915
H          15.41836        -1.45103         8.73240
H          18.15273        -1.11471         6.74712
H          17.39981        -1.67341        10.04497
H          17.96104        -1.34713         8.11904
H          14.69639        -1.29341         7.80178
H           9.49633        -0.75259         4.60894

