%chk=NdNNdCN1CdCSCdCCdCN1S.chk
%NProcShared=20
# opt freq b3lyp/6-31g(2df,p)

Title Card Required 

0  1
N           1.13977        -0.06621         0.05567
N           2.45722        -0.10595         0.06781
N           3.12188        -1.68644         0.55037
C           4.50234        -2.03003         0.65528
N           5.87160        -3.25263         1.02857
C           6.77781        -2.27704         0.73070
C           7.90659        -2.80601         0.89221
S           9.49738        -2.58581         0.82497
C           9.67178        -4.17149         1.30912
C          10.68691        -4.98437         1.55732
C           9.74946        -6.51497         2.02465
C           8.06597        -6.24800         1.94314
N           6.57563        -4.96141         1.55031
S           4.71329        -5.41219         1.68794
H           0.58424         0.81223        -0.21254
H           4.99399        -0.89144         0.30764
H           6.79321        -1.25670         0.41916
H           7.65703        -3.73530         1.17594
H           8.75791        -4.66775         1.46064
H          11.68964        -4.56444         1.42910
H          10.56710        -7.46705         2.31535
H           9.35963        -6.01418         1.87174
H           3.29068        -4.69415         1.46871

