%chk=NN1[C]NCqdSrCdCNdCNdN1.chk
%NProcShared=20
# opt freq b3lyp/6-31g(2df,p)

Title Card Required 

0  1
N           2.19562         0.10103         0.11580
N           3.94361         0.33413         0.52138
C           3.34889         1.50685        -0.01824
N           4.52702         1.48718        -0.40631
C           5.27021         2.59908        -0.49064
S           4.67368         4.15264        -0.40779
C           6.57310         2.09297        -0.97770
C           7.66276         2.87037        -0.89407
N           8.95085         2.06254        -0.69759
C           8.70493         2.64760         0.42233
N           7.38930         1.41201         0.92431
N           5.97653         0.67580         0.82839
H           1.39875         0.89691        -0.13987
H           1.44396        -0.31984         0.79296
H           5.01877         0.50401        -0.32786
H           6.94241         0.89796        -0.94212
H           7.50953         4.05349        -0.48698
H           9.29298         3.92853        -0.17165

