%chk=NN1CdCCdCSSCdCSCdCCdCCdCSS1.chk
%NProcShared=20
# opt freq b3lyp/6-31g(2df,p)

Title Card Required 

0  1
N           4.42001         1.16147        -0.32501
N           6.90350         1.65121        -0.68737
C           4.78656         1.71569        -0.76690
C           5.65375         0.79680        -1.35934
C           5.43844         2.38941        -1.81847
C           6.84773         2.64338        -2.05281
S           7.48158         3.85274        -2.70917
S           9.23038         4.10574        -2.95525
C          10.52667         4.68158        -3.31130
C          11.72816         4.66623        -3.31898
S          12.60332         5.85138        -4.13963
C          14.16018         5.72562        -4.05633
C          14.98471         6.50692        -4.60307
C          16.24318         6.15659        -4.37997
C          17.15995         6.98618        -4.94466
C          17.49800         5.64018        -3.96472
C          15.72150         4.65099        -3.19063
S          13.04814         3.47679        -2.31398
S           9.75635         2.39708        -1.51096
H           2.72323         0.92582        -0.55634
H           2.86737         0.61641         0.12320
H           3.18134         1.86038        -1.41952
H           5.48856         0.10848        -0.15801
H           4.67206         3.02918        -2.15899
H           8.00290         1.68571        -1.43620
H          10.00616         5.32156        -3.76310
H          11.54458         3.66173        -2.63034
H          14.39149         4.94612        -3.53125
H          15.04277         7.31667        -5.16950
H          16.98666         4.71372        -3.38349
H          17.49990         7.78029        -5.49507
H          19.32035         5.77989        -4.08940
H          17.26862         5.56778        -3.90768

