%chk=NN1SNdCSCdNCdCSNCdCCdC1CdO.chk
%NProcShared=20
# opt freq b3lyp/6-31g(2df,p)

Title Card Required 

0  1
N           3.37851        -0.19878         0.43850
N           6.04816        -0.11098         0.86922
S           3.63121        -0.05033         1.46182
N           5.17062        -0.02223         1.43471
C           5.92614        -0.05926         2.45811
S           7.23474        -0.07782         3.06438
C           8.56404        -0.09286         3.57878
N           9.62628        -0.09193         3.56151
C          10.39220        -0.11639         4.70768
C          11.60816        -0.11927         4.84750
S          12.61721        -0.15258         6.45561
N          13.86606        -0.13782         5.75882
C          14.75276        -0.14556         6.07090
C          13.28277        -0.11192         4.36665
C          10.88626        -0.08209         2.78560
C           8.61607        -0.07234         1.61244
C           6.45353        -0.01975        -0.05520
O           5.13801         0.01153        -1.40418
H           1.56043        -0.05892         0.72809
H           1.69057        -0.57265        -0.23185
H           5.49437        -0.08522         3.19830
H           8.08233        -0.10880         4.34297
H          10.07793        -0.13476         5.59547
H          12.42378        -0.08341         3.13083
H          14.86240        -0.10949         4.44079
H          15.20402        -0.18203         7.85327
H          15.19436        -0.12958         5.27853
H          12.56703        -0.10540         4.05935
H           4.63994         0.00234        -0.96076

