%chk=NNNdc1ccccccccccc1dS.chk
%NProcShared=20
# opt freq b3lyp/6-31g(2df,p)

Title Card Required 

0  1
N           1.07672         0.01555         0.14194
N           3.11298        -0.00856         0.34152
N           4.89528        -0.30658         1.34374
C           6.79601        -0.42570         1.76636
C           5.27943        -0.67353         2.62419
C           6.55010        -0.73923         2.85217
C           7.18859        -1.04124         3.91352
C           8.40177        -1.11429         4.16210
C           8.79702        -1.42277         5.24997
C           9.97001        -1.28689         4.95231
C          11.05701        -1.62613         5.97478
C          11.80681        -1.19179         4.40537
C          12.19938        -1.58724         5.71679
C          11.26827        -1.14066         4.03197
C           9.21080        -0.67357         2.57349
S           8.02786        -0.13748         0.73188
H           0.64412         0.31794        -0.85160
H           0.61667         0.73993         0.73123
H           2.97043         0.28603        -0.74461
H           4.55319        -0.89259         3.39303
H           7.76153        -0.67443         2.61393
H           6.60245        -1.24802         4.63959
H           9.54394        -1.01189         3.74483
H           8.73172        -1.67135         6.11981
H          10.49439        -0.77425         3.19520
H          10.95587        -1.94204         7.07782
H          13.38172        -1.16946         4.34107
H          12.81669        -1.97800         7.18968
H          12.65183        -1.40271         5.33488

