%chk=NNNNCqCdNSrdCCdCNdS.chk
%NProcShared=20
# opt freq b3lyp/6-31g(2df,p)

Title Card Required 

0  1
N           0.99903        -0.09157        -0.05812
N           2.42554        -0.06321        -0.09377
N           2.87443         0.07871         1.22538
N           4.25238         0.11315         1.33306
C           4.92625         0.21932         2.55434
C           4.11342         0.34399         3.83457
N           2.81361         0.30633         3.89526
S           2.15177         0.48942         5.41720
C           6.28068         0.21875         2.64250
C           7.09859         0.33828         3.83450
C           8.44992         0.34866         3.91964
N           9.15142         0.47037         5.07702
S          10.64260         0.45069         4.86056
H           0.60312        -0.14710        -0.99469
H           0.64660         0.76654         0.37175
H           2.77741         0.73308        -0.63654
H           2.48062        -0.63593         1.85143
H           4.82783        -0.07098         0.51830
H           4.69216         0.46563         4.76142
H           0.86036         0.46825         5.05476
H           6.86833         0.12685         1.73071
H           6.62424         0.43961         4.80091
H           8.97365         0.25037         2.96441

