%chk=NtCCC1dCCdNCdc2cqccc3c2dCdCd3rdCdNNN1.chk
%NProcShared=20
# opt freq b3lyp/6-31g(2df,p)

Title Card Required 

0  1
N           0.97994         0.06267        -0.07530
C           2.24091         0.06267        -0.07530
C           3.76091         0.06267        -0.07530
C           4.53101         1.88413         0.76580
C           5.82053         1.53523         0.79425
C           6.57697         2.39003         1.64538
N           7.78130         2.64814         1.32858
C           8.20889         3.61790         2.11312
C           9.45392         4.00876         2.25710
C           9.52515         5.30954         3.03114
C          10.95512         5.61885         3.46429
C          11.93919         4.67618         3.38008
C          11.85580         3.45972         2.60696
C          10.43232         2.98071         1.68599
C          11.45722         2.34032         1.31839
C          12.42395         2.57374         1.90124
C           8.21964         5.80294         3.30387
N           6.96876         5.67427         3.44165
N           5.80592         5.12030         2.18059
N           4.60067         3.59207         1.50002
H           4.15955         0.13630        -1.09259
H           4.20421        -0.73988         0.51860
H           6.27900         0.68322         0.36934
H           6.05362         2.82657         2.53348
H           7.44823         4.10359         2.65197
H          11.33963         6.61586         3.69232
H          12.93580         4.69119         3.78770
H           5.52325         6.15948         2.07252
H           3.69899         3.82982         1.92756

