%chk=Odc1ccc2cqcc1OrdCCdCCdCCdCCdCCd2.chk
%NProcShared=20
# opt freq b3lyp/6-31g(2df,p)

Title Card Required 

0  1
O           1.19549        -0.07658        -0.09887
C           2.51922         0.03909        -0.01721
C           3.59512         1.35726         0.91292
C           5.30166         2.05439         1.40555
C           7.08647         3.23456         2.22844
C           6.71602         1.71452         1.16455
C           6.07105         0.13385         0.04952
C           4.36090        -0.60603        -0.47234
O           3.01458        -1.71188        -1.25251
C           7.59280         2.74808         1.89392
C           8.98975         2.77929         1.91620
C           9.89726         3.51837         2.43968
C          10.98781         3.26316         2.25619
C          11.24656         4.16936         2.90872
C          12.98175         4.51179         3.17107
C          11.93547         5.55212         3.97075
C          13.28574         5.39381         3.70557
C          11.25137         5.34765         3.68588
C           8.82126         4.54338         3.14043
H           2.48216         1.72406         1.17133
H           4.78073         0.78232         0.50714
H           7.58316         0.50568         0.31193
H           2.80550        -2.63306        -1.90237
H           7.85920         3.92531         2.72983
H           9.35277         2.07174         1.41665
H           9.93301         4.78553         3.33778
H          11.74683         2.94896         2.03548
H          10.17472         5.58215         3.90378
H          13.81277         3.99107         2.75747
H          12.68532         6.81257         4.77259
H          15.00322         5.18589         3.62040
H          13.08334         5.95221         4.10704
H           7.01646         4.52261         3.14323

