%chk=Odc1c2ccqc3cccccc1-3rCdN2.chk
%NProcShared=20
# opt freq b3lyp/6-31g(2df,p)

Title Card Required 

0  1
O           0.48657         0.46878        -2.65509
C           1.57402         0.24362        -3.37046
C           2.80779         0.04003        -2.12017
C           3.35728         1.19741        -2.49303
C           4.09349         0.58432        -3.66157
C           3.45952         0.81901        -4.87095
C           3.62897         2.25349        -5.02757
C           3.85947         2.66182        -6.27806
C           2.79741         3.60417        -6.72250
C           2.22484         2.76159        -7.58004
C           1.43073         1.69415        -6.45185
C           1.87599         0.87233        -5.09854
C           4.54505        -0.71817        -3.01792
N           3.76353        -0.98693        -2.01596
H           2.58484         1.97717        -2.56107
H           2.79655         2.77016        -4.47256
H           4.15059         1.83929        -7.01181
H           1.96214         3.88933        -6.00903
H           2.80396         2.73612        -8.55588
H           0.57079         2.38443        -6.86032
H           5.43799        -1.30415        -3.31525

