%chk=Odc1ccc2cqcc1rdCCdCdCdCCd2.chk
%NProcShared=20
# opt freq b3lyp/6-31g(2df,p)

Title Card Required 

0  1
O           2.01119         0.05746        -0.15503
C           3.06300        -0.16769         0.45705
C           3.01932        -0.71611         1.94315
C           4.19835        -0.92613         2.52835
C           5.51408        -1.18813         3.22714
C           6.54782        -0.74023         2.01370
C           5.98293        -0.16175         0.44096
C           4.64665         0.06731        -0.18179
C           7.75024        -0.94023         2.55745
C           9.14655        -1.05702         2.87498
C           9.44671        -1.49985         4.07893
C           8.73827        -1.84208         5.00938
C           7.51199        -2.01783         5.48720
C           5.97050        -1.68561         4.58397
H           2.02963        -0.85438         2.32418
H           4.62975        -0.60765         1.65324
H           6.96497         0.00652        -0.01653
H           4.33066         0.44670        -1.21326
H           7.50704        -1.29001         3.50844
H           9.84569        -0.78517         2.13589
H           7.75071        -2.39819         6.52129
H           5.10272        -1.91017         5.19448

