%chk=OdC1CdCCdC2CdC[SH]dS12.chk
%NProcShared=20
# opt freq b3lyp/6-31g(2df,p)

Title Card Required 

0  1
O           0.91369        -0.29446         0.14066
C           2.11583        -0.19664         0.03075
C           3.00049        -1.37682        -0.00782
C           4.33360        -1.28614        -0.09107
C           5.08673        -0.04848        -0.10058
C           4.51835         1.15676        -0.16369
C           5.10634         2.47025         0.00180
C           4.17954         3.37443         0.39739
S           2.75819         2.45986         1.10664
S           2.76784         1.39108        -0.38637
H           2.47841        -2.32404         0.00468
H           4.91716        -2.20276        -0.10196
H           6.16372        -0.13395         0.02596
H           6.10542         2.69117        -0.34770
H           4.29179         4.44471         0.24714
H           1.58074         3.03779         1.06085

