%chk=Odc1c2c3cccq[nH]3rc1dC[N]NCdCCCdNCdCd2.chk
%NProcShared=20
# opt freq b3lyp/6-31g(2df,p)

Title Card Required 

0  2
O           0.75611        -2.56066         1.39212
C           1.62509        -3.64928         1.92806
C           2.46096        -1.93041         1.38300
C           3.84082        -1.38412         1.08488
C           4.91900        -0.49631         1.45344
C           4.52676        -2.05329         2.58851
C           3.46138        -3.66920         3.11541
N           4.36862        -2.80685         1.80726
C           1.93310        -4.93086         3.58238
C           1.06731        -6.29906         4.84532
N          -0.11073        -7.65724         5.38718
N          -1.87455        -7.55874         5.49750
C          -1.55060        -7.10097         4.25430
C          -1.16001        -5.78816         4.32834
C          -0.18636        -5.47525         3.22604
C           0.10318        -3.77827         3.70718
N           1.31601        -3.11649         3.83592
C           1.67225        -1.89444         3.47100
C           2.24535        -1.31651         2.49820
H           4.96454         0.88080         0.90310
H           5.77262        -1.50298         1.93174
H           5.02491        -3.20739         1.18071
H           0.04487        -7.01754         5.85449
H          -1.96940        -7.14301         6.50303
H          -0.84115        -8.04264         3.73767
H          -0.82722        -5.42175         5.47546
H          -0.59903        -5.74272         2.29888
H           0.86330        -6.36495         3.01170
H           0.19931        -3.66979         4.78093
H           1.26835        -1.40239         4.19589

