%chk=OdC1CdCdSdCNCd[SH]CCdC1.chk
%NProcShared=20
# opt freq b3lyp/6-31g(2df,p)

Title Card Required 

0  1
O           3.48148         0.03026        -1.83303
C           4.39543         0.78946        -1.38030
C           3.95245         1.27237         0.07628
C           4.88497         1.06650         1.01683
S           6.45594         0.98574         1.41920
C           6.83642         1.96502         0.05216
N           8.13125         1.99127        -0.25642
C           8.51313         2.73879        -1.29330
S           9.96239         2.37966        -2.21434
C           8.58497         2.20934        -3.57874
C           7.25933         1.13698        -2.96186
C           5.98613         0.77229        -2.29832
H           2.93382         1.32654         0.47820
H           6.11930         2.48986        -0.62994
H           8.73281         1.30284         0.16447
H           7.74541         3.38674        -1.76594
H          10.35006         1.12796        -2.05796
H           8.49829         3.30125        -3.76998
H           9.21560         1.79253        -4.39427
H           7.84629         0.24992        -3.24909
H           5.91717        -0.34208        -2.30937

