%chk=OdC1CdCCdCc2c3cqccccccc2dNCdC1rdNCdC3.chk
%NProcShared=20
# opt freq b3lyp/6-31g(2df,p)

Title Card Required 

0  1
O           0.84548        -0.03981         0.07883
C           2.06174        -0.09811         0.11373
C           3.11286        -1.27748         0.84205
C           4.76018        -0.95879         0.79094
C           5.48651        -1.76962         1.55955
C           6.63794        -2.13505         1.87095
C           6.67403        -3.35274         2.85297
C           8.29878        -3.23466         2.78762
C           8.91872        -4.12932         3.58138
C           8.67482        -5.10339         4.41443
C           7.43040        -5.17847         4.47796
C           6.87258        -6.07696         5.24681
C           5.65453        -6.04839         5.22664
C           4.46329        -6.58793         5.66386
C           3.60532        -5.50879         4.64560
C           5.02340        -4.24762         3.82535
N           4.41493        -3.45507         3.00167
C           3.25756        -2.69718         2.22478
C           2.99515        -1.02603         1.33202
N          10.08441        -3.93589         3.41386
C          11.28216        -3.74626         3.25266
C          10.13234        -2.81293         2.45147
H           1.73863        -1.87373         1.56855
H           5.07329        -0.16620         0.17785
H           5.01165        -2.38944         2.09915
H           7.13931        -1.40202         1.23894
H           9.31264        -5.69571         4.92193
H           6.86251        -4.56851         3.95566
H           7.21679        -6.77851         5.85011
H           4.70543        -6.17292         5.34710
H           4.65540        -7.46203         6.43822
H           2.73338        -6.30301         5.46039
H           3.19326        -3.41478         3.09963
H           3.37576        -0.04512         0.12949
H          11.53987        -4.83124         4.18075
H           9.89853        -1.91310         1.67945

