%chk=Odc1ccc2c3cqc1dCCqOrdCCdNCdC2rdC3.chk
%NProcShared=20
# opt freq b3lyp/6-31g(2df,p)

Title Card Required 

0  1
O           0.47753        -0.17043         0.18196
C           1.37525        -0.85056         0.61559
C           2.67365        -0.23206         0.22125
C           3.96357        -0.45891         0.36588
C           4.36781        -2.03235         1.36908
C           5.39270        -2.75433         1.82940
C           3.62217        -2.21896         1.48806
C           1.58235        -2.32393         1.55499
C           0.00741        -3.12558         2.06610
C          -0.59602        -4.69145         3.06447
O          -1.77210        -5.71196         3.71512
C           0.33966        -5.46797         3.55956
C           1.44096        -4.83638         3.15687
N           2.64025        -5.12932         3.34364
C           3.22241        -4.15504         2.72246
C           4.37826        -3.69986         2.43225
C           5.34477        -1.67442         1.14087
H           2.58060        -1.08202         0.76317
H           4.85669         0.09099         0.01528
H          -1.25387        -3.21533         2.12332
H          -2.69325        -6.05773         3.93558
H           0.55497        -6.33983         4.11544
H           1.28197        -3.99690         2.62164
H           2.64833        -3.45897         2.27866
H           5.16078        -4.34481         2.84346
H           6.28690        -0.99494         0.70765

