%chk=OdC1NdCCdCCd[SH]CC1Cd[SH]S.chk
%NProcShared=20
# opt freq b3lyp/6-31g(2df,p)

Title Card Required 

0  1
O           1.82160         0.17766         0.01641
C           3.03808         0.39819         0.32702
N           3.13394         0.66077         1.55040
C           4.33285         0.28572         1.75248
C           4.72581         1.24558         2.64874
C           5.83280         0.49594         2.55500
C           6.33429         1.49050         3.44154
S           8.56722         1.44173         2.72784
C           6.71273         1.87949         1.36833
C           4.96487         0.94886        -0.00051
C           3.65667        -0.29911        -1.09274
S           2.99785        -1.64157        -2.99958
S           1.08352        -2.49379        -4.38285
H           5.47799        -0.32590         0.98669
H           4.30001         2.00400         3.28378
H           6.82068         0.23919         1.46499
H           6.37180         2.31288         4.16279
H           9.22770         2.55365         2.19122
H           7.41809         2.63044         2.54852
H           7.62798         1.66588         2.68835
H           4.96690        -0.27476        -0.59397
H           2.22762        -0.67569        -1.38791
H           3.33107        -2.97705        -3.07835
H           0.21567        -1.59463        -4.99622

