%chk=Odc1cc2[c]ccccccc1-2.chk
%NProcShared=20
# opt freq b3lyp/6-31g(2df,p)

Title Card Required 

0  2
O           1.80317         0.60615         0.02635
C           3.03926         0.53923        -0.01293
C           3.63908        -0.73690        -0.01058
C           4.78869        -0.09349        -0.04992
C           6.06264        -0.78257         0.00810
C           6.90060         0.13013         0.08221
C           8.15682         0.54163         0.36186
C           8.27724         1.84814         0.75525
C           9.18714         2.30353        -0.23794
C           7.87536         2.87861        -0.68305
C           5.97772         2.55640        -0.44421
C           4.52469         1.61451        -0.19509
H           3.38543        -1.83018         0.03274
H           6.38972         0.98095         0.31798
H           8.90536        -0.13160        -0.00771
H           7.48346         2.86104         1.08234
H          10.12398         1.52248         0.05834
H           8.76467         3.78810        -0.20036
H           5.33913         3.41960        -0.06221

