%chk=OdC1CdCCdc2occncccc2dCSC1dO.chk
%NProcShared=20
# opt freq b3lyp/6-31g(2df,p)

Title Card Required 

0  1
O           1.50245         0.04902         0.14552
C           2.74375        -0.09380         0.04559
C           3.19124        -1.24488        -0.75985
C           4.52799        -1.33347        -0.82184
C           5.72490        -2.18866        -1.42024
C           7.30580        -2.39753        -1.56639
O           7.23877        -3.45943        -2.30944
C           8.41266        -3.77313        -2.52895
C           8.71269        -4.76962        -3.22622
N           9.94463        -4.65786        -3.14801
C          10.94273        -5.23446        -3.55148
C          12.01521        -3.99484        -2.68408
C          11.01785        -2.84409        -1.87887
C           9.12404        -1.93302        -1.24136
C           7.97232        -0.91346        -0.52795
S           6.48001         0.51627         0.47247
C           4.16768         0.86497         0.71647
O           3.51026         1.76739         1.34792
H           2.47091        -1.89238        -1.21292
H           4.83043        -0.53563        -0.26357
H           4.94363        -2.90310        -1.92016
H           9.30733        -3.35080        -2.23343
H           8.34853        -5.52957        -3.75797
H          10.90987        -6.10518        -4.16075
H          13.27649        -4.32764        -2.91695
H          11.46882        -3.92920        -2.63815
H           6.82526        -0.92160        -0.53364

