%chk=OdC1[SH]dNC2dC1CdCqOrCdCSCdCCdC2.chk
%NProcShared=20
# opt freq b3lyp/6-31g(2df,p)

Title Card Required 

0  1
O           3.86899        -0.41472        -0.00485
C           5.41475         0.13676         0.03876
S           3.41388         1.28762        -0.01871
N           4.97334         1.26088         0.08207
C           6.07153        -0.15682         0.00093
C           7.72248         0.53557        -0.15788
C          10.01895         0.21896        -0.10870
C          12.10144        -0.24814        -0.07363
O          14.04291        -0.93092        -0.05778
C          13.09228        -1.94643        -0.04627
C          11.84300        -1.81959        -0.01529
S          10.77288        -2.94436        -0.02331
C           9.45814        -2.12174        -0.00060
C           8.28899        -2.50994         0.00134
C           7.51381        -1.45268         0.09548
C           6.16509        -1.72714         0.03381
H           2.90750         1.87213         1.15237
H          11.49367         0.60798        -0.03033
H          15.49291        -1.22525        -0.06017
H          13.44670        -3.15015        -0.04739
H          10.99055        -1.19326         0.02983
H           9.26272        -1.22723        -0.12523
H           7.82215        -3.36520         0.00190
H           8.59801        -0.35375         0.34712
H           5.44855        -2.61524         0.01588

