%chk=OdC1NdCCdC2CdCCdc3cccnc3dCCdC1C2dO.chk
%NProcShared=20
# opt freq b3lyp/6-31g(2df,p)

Title Card Required 

0  1
O           2.21712        -0.94638         0.59017
C           3.20317        -0.31376         0.54327
N           3.05145         1.00092         0.04689
C           4.03746         1.70710        -0.21491
C           5.36296         1.18064        -0.17979
C           5.72013         0.07481        -0.89186
C           7.10061        -0.25087        -1.00468
C           7.92390         0.73865        -0.71161
C           9.31861         0.60696        -0.63574
C           9.60646         1.24875         0.48921
C           9.43898         2.62324         0.91951
C          10.27483         3.07141         1.85702
C          11.38178         2.08415         1.95676
N          11.06267         0.74004         2.00934
C           9.51087         0.36590         1.63736
C           8.30012        -0.65777         1.73480
C           6.44034        -1.08872         1.45618
C           4.91277        -0.96004         1.03781
C           5.03666        -1.17778        -0.48845
O           4.83616        -2.16939        -1.16604
H           4.00930         2.79745        -0.39770
H           5.91096         1.71446         0.59181
H           7.43549        -1.29635        -0.93026
H           7.54277         1.45935         0.03081
H           9.67428        -0.42550        -0.77027
H           8.52698         3.12038         0.69265
H          10.19896         3.97032         2.45872
H          12.39031         2.71943         1.93236
H           8.79724        -1.59592         1.34437
H           6.29597        -2.09510         1.92321

