%chk=OdC1CdCCdCCdCCdNNdNCdC1.chk
%NProcShared=20
# opt freq b3lyp/6-31g(2df,p)

Title Card Required 

0  1
O           3.32076         0.19452         0.49988
C           4.68855         0.61318         1.38980
C           3.09879         0.70632         1.56909
C           4.56621         0.76625         1.68545
C           5.20254         1.37283         2.95509
C           6.50226         1.50619         3.26941
C           6.88396         1.58882         4.49004
C           7.45163         1.89697         3.22835
C           8.51522         2.18083         4.58355
N          10.28324         1.77702         3.76069
N          10.60218         2.61049         5.55442
N          10.59591         1.84445         4.02022
C           8.79744         1.29119         3.17320
C           7.01384         0.76804         1.86221
H           2.36575         1.02262         2.23106
H           5.50340         0.17664         0.45915
H           4.38685         1.59603         3.44433
H           7.93317         1.02540         2.38799
H           6.45567         2.53453         4.78860
H           8.84422         1.08635         1.98611
H           8.69287         2.71474         5.76420
H           9.67675         2.14382         4.64290
H           6.81583         0.28799         0.69126

