%chk=Odc1ccc[c]c2ccccccc-2s1.chk
%NProcShared=20
# opt freq b3lyp/6-31g(2df,p)

Title Card Required 

0  2
O           3.09511        -0.66617         1.02594
C           3.76299        -1.26424         0.17128
C           3.20633        -1.21733        -1.17600
C           4.20161        -0.74685        -1.91868
C           4.76847        -1.77612        -2.69772
C           6.06070        -1.74008        -2.55428
C           6.92453        -2.72059        -2.18117
C           7.27202        -3.33666        -3.34187
C           7.87092        -4.48896        -3.92325
C           7.59791        -5.73959        -3.56269
C           6.72661        -6.08125        -2.46577
C           6.58596        -5.59176        -1.21499
C           7.14323        -4.42351        -0.45920
C           6.66217        -3.18524        -0.77879
S           5.42415        -2.27587         0.54039
H           2.47961        -1.96898        -1.44531
H           4.94801        -0.08011        -1.45195
H           4.41260        -2.81512        -2.50394
H           6.67251        -2.97196        -4.19708
H           8.36627        -4.31728        -4.88768
H           7.93603        -6.54479        -4.22594
H           6.04552        -6.88119        -2.76249
H           5.90783        -6.15532        -0.58651
H           8.22209        -4.54918        -0.67070

