%chk=OdC1CdNCdCCdCCdCCdNCdNCdCS1.chk
%NProcShared=20
# opt freq b3lyp/6-31g(2df,p)

Title Card Required 

0  1
O           4.99003        -0.50289        -0.03524
C           6.54591        -1.37409        -0.06500
C           4.19894        -1.28429        -0.06193
N           4.81966        -2.17134        -0.09223
C           5.20582        -3.17749        -0.12660
C           6.46947        -3.12792        -0.12491
C           7.18821        -4.14453        -0.15964
C           8.38173        -4.57753        -0.17443
C           9.07720        -5.54184        -0.20737
C          10.23292        -5.34493        -0.20064
C          10.78254        -6.56748        -0.24240
N          11.82178        -7.09693        -0.26049
C          12.88444        -7.72898        -0.28208
N          14.50030        -7.35278        -0.26923
C          13.15352        -6.12223        -0.22719
C          11.60255        -4.54716        -0.17339
S           9.26099        -2.78257        -0.11311
H           2.67195        -2.07434        -0.08892
H           4.37579        -3.62306        -0.14182
H           7.46733        -2.28938        -0.09626
H           6.54896        -4.85655        -0.18396
H           9.82691        -4.06716        -0.15699
H           8.65576        -6.30413        -0.23341
H          10.87521        -3.62735        -0.14197
H          10.68200        -7.53579        -0.27548
H          12.88007        -8.75908        -0.31727
H          14.17384        -7.73281        -0.28221
H          13.12157        -5.40295        -0.20262

