%chk=OdC1CSCdCSCdC2NCdCCdCCdS12.chk
%NProcShared=20
# opt freq b3lyp/6-31g(2df,p)

Title Card Required 

0  1
O           5.16849        -2.12067         1.81073
C           7.00957        -2.07289         1.77224
C           4.68268        -1.61438         1.40072
S           6.32255        -1.15130         1.02549
C           6.80086        -3.14718         2.64258
C           8.45316        -2.22552         1.89579
S           7.71674        -3.49004         2.92043
C           9.89817        -2.85806         2.40837
C          11.06054        -3.47904         2.91151
N          11.81955        -2.86204         2.41159
C          12.39626        -3.61320         3.02021
C          14.11396        -3.70434         3.09407
C          13.65384        -4.78553         3.97013
C          15.03028        -4.58856         3.81053
C          12.70282        -4.66628         3.87353
S           9.77848        -3.58696         2.99900
H           3.14480        -2.00531         0.67682
H           3.14478        -0.98732         1.93320
H           5.40211        -3.09541         2.60071
H           7.98164        -1.15287         1.02670
H          10.17936        -2.03639         1.74260
H          12.61680        -2.62731         2.22140
H          11.63210        -4.98360         4.13060
H          14.91336        -3.20654         2.69072
H          14.48042        -6.03836         4.98524
H          16.66978        -4.22716         3.51770
H          14.68584        -5.21336         4.31678

