%chk=Odc1ccccs[nH]ccc1d[SH]S[SH]dS.chk
%NProcShared=20
# opt freq b3lyp/6-31g(2df,p)

Title Card Required 

0  1
O           2.87926         0.09345        -0.03840
C           4.10752        -0.47758         0.09451
C           3.11065        -1.56437         0.32408
C           4.30878        -1.77335         0.48246
C           4.87850        -2.89490         0.74016
C           6.12936        -3.03232         0.54477
S           7.12114        -4.20020         0.86716
N           8.37455        -2.64734        -0.00253
C           8.66732        -3.47376         1.17322
C           7.98158        -1.90577         1.07335
C           6.18181        -0.49033         0.45878
S           4.75115         1.43522         0.03858
S           4.18759         3.64584        -1.03563
S           2.60063         5.49494        -1.48230
S           3.80926         7.12261        -1.90797
H           2.30714        -2.22030         0.49412
H           5.20103        -1.70625         0.10715
H           4.40126        -3.72485         0.93908
H           6.58829        -2.15369        -0.09456
H           9.62164        -2.10665         0.31624
H           9.00567        -4.98675         1.21950
H           9.18824        -2.94957         1.18647
H           3.05949         1.73663         0.16095
H           1.87253         6.11043        -0.51215

