%chk=Odc1ccccccc2ccc3ccc-3cc-2nnncccc1.chk
%NProcShared=20
# opt freq b3lyp/6-31g(2df,p)

Title Card Required 

0  1
O           2.58945        -0.66073         0.85249
C           3.58890        -0.73873         0.12690
C           3.39820        -0.18229        -1.22611
C           4.61253         0.23649        -1.56286
C           5.10789         0.33654        -2.85657
C           6.43840         0.35225        -2.87311
C           7.16235         0.35526        -4.07516
C           8.48797         0.49004        -4.06792
C           9.28437         0.38230        -5.26636
C           8.89800         1.27568        -6.20799
C           9.37700         1.57794        -7.51910
C          10.41381         0.94498        -8.02853
C          11.15884         0.97994        -9.24446
C          11.96627        -0.01225        -8.78418
C          11.24778        -0.08057        -7.53126
C          11.34491        -0.80556        -6.40732
C          10.42313        -0.69380        -5.19549
N          10.65915        -1.53623        -4.16980
N           9.68018        -1.52262        -3.11650
N           9.75761        -2.11034        -1.97879
C           8.59836        -1.76447        -1.18385
C           7.90088        -2.27110        -0.11907
C           6.51794        -1.76159         0.68786
C           5.15913        -1.29993         0.72142
H           2.51613        -0.13764        -1.85541
H           5.32631         0.34891        -0.76266
H           4.49052         0.28125        -3.73754
H           6.96771         0.34208        -1.92731
H           6.59194         0.24625        -4.98846
H           9.04024         0.59998        -3.13806
H           8.05455         1.93465        -5.97896
H           8.87531         2.35349        -8.09247
H          11.04650         1.59663       -10.13397
H          12.82130        -0.56979        -9.14972
H          12.12442        -1.55267        -6.35160
H           8.22884        -0.82987        -1.50304
H           8.49654        -3.04843         0.41350
H           6.87881        -1.95335         1.72351
H           4.81350        -1.11053         1.76510

