%chk=OdC1[N]CdCdCdCc2cc3ccccnc-3c2N1.chk
%NProcShared=20
# opt freq b3lyp/6-31g(2df,p)

Title Card Required 

0  2
O           3.12496        -0.52885        -0.03957
C           3.86043        -0.27727         0.91466
N           3.23780         0.51235         1.75941
C           4.22943         1.33150         1.96673
C           4.58862         0.80487         3.11276
C           5.04851         0.16815         4.00091
C           6.17425        -0.07429         4.56035
C           7.13493         0.45489         3.59339
C           7.93822         1.59347         4.18838
C           9.25511         1.47443         4.19784
C          10.26572         2.82480         4.53057
C          10.18048         3.95796         3.77229
C          11.38877         4.00343         2.93786
C          10.96913         3.14965         1.94059
N          10.11761         1.77812         2.22242
C           8.91574         1.06684         2.46435
C           7.02133         0.37644         2.13755
N           5.71596        -0.31268         1.12081
H           4.91650         1.48183         1.00360
H           6.17761        -0.09368         5.65901
H           7.73362         2.53877         3.65656
H          11.37765         2.62120         4.62659
H           9.27455         3.97470         3.08905
H          12.42986         4.35548         3.17794
H          10.52393         4.12660         1.54151
H           5.57952        -0.32551         0.04969

