%chk=OdC1CdCNdCCdCCdCCdCS1.chk
%NProcShared=20
# opt freq b3lyp/6-31g(2df,p)

Title Card Required 

0  1
O           3.79313        -0.08185         0.11608
C           5.10977        -0.37089         1.10497
C           3.47813        -0.48752         1.50398
C           4.94372        -0.47237         1.45215
N           4.98529        -0.88221         2.85431
C           6.10938        -0.98713         3.21326
C           6.77996        -1.29746         4.27497
C           8.01379        -1.27641         4.20294
C           9.02017        -1.51176         5.00814
C           9.93672        -1.09111         3.56900
C          10.33011        -1.47726         4.89010
C           9.62747        -0.98191         3.19540
S           7.73175        -0.49245         1.52085
H           2.61901        -0.69263         2.20571
H           5.67801        -0.03329        -0.05005
H           7.00418        -0.91358         2.96164
H           6.43778        -1.53774         5.09702
H           8.31258        -0.90421         2.92957
H           8.77677        -1.81978         6.06193
H          11.37121        -0.98385         3.20204
H          10.67539        -1.88102         6.27144
H          11.02025        -1.32570         4.37158

