%chk=OdCC1dCNdCNdCCdCCdc2ccccc2dC1.chk
%NProcShared=20
# opt freq b3lyp/6-31g(2df,p)

Title Card Required 

0  1
O           1.49177         0.20322         0.14026
C           3.10666         0.71167         0.59685
C           4.94039         1.94769         1.61516
C           4.55711         0.85011         0.74629
N           5.47283         1.52294         1.42476
C           6.95582         1.57536         1.78834
N           7.90982         2.74272         3.28571
C           8.47382         2.22252         2.39332
C           8.88706         3.94436         3.84163
C          10.32151         4.05377         3.85343
C          10.97712         4.90323         4.53729
C          11.33978         4.05289         3.68716
C          12.82860         5.15524         4.78799
C          14.44409         5.59406         4.84377
C          13.75995         4.29268         3.61424
C          11.94273         3.53518         3.03198
C           9.42189         3.34728         2.49590
C           7.16941         3.10531         2.12232
H           2.86453        -0.53535        -0.55463
H           4.95824         0.17524         0.11633
H           7.09447         1.02425         0.91317
H           9.12310         1.89731         1.73759
H           8.39453         4.64202         4.30865
H          10.80093         2.86665         2.74261
H          10.81765         5.54197         5.17957
H          12.86319         6.03299         5.91152
H          15.24547         6.52415         5.40442
H          15.47688         4.72767         3.88927
H          13.63046         3.25358         3.13494
H           5.38558         2.77774         2.49975

