%chk=OdCCqCdOrdCCNdCSSC1C[SH]dNNC1dS.chk
%NProcShared=20
# opt freq b3lyp/6-31g(2df,p)

Title Card Required 

0  1
O           1.13490        -0.14179         0.00796
C           2.35476        -0.02368         0.07719
C           3.05456         1.10007         0.76315
C           2.28277         2.18502         1.42369
O           1.05647         2.25108         1.46711
C           4.40887         1.12808         0.78304
C           5.25675         2.19966         1.43785
N           6.67749         1.91412         1.24413
C           7.48345         2.78964         1.75332
S           9.21401         2.59664         1.50300
S          10.08642         4.05347         2.69427
C          11.95433         3.83855         2.49312
C          12.37047         2.39012         2.48629
S          13.25138         1.71998         1.08518
N          13.27788         2.76813         0.02677
N          13.20913         4.12401         0.36440
C          12.50360         4.68997         1.37484
S          12.38006         6.37798         1.38482
H           3.00185        -0.78352        -0.38702
H           2.87643         2.97382         1.90267
H           4.97046         0.33085         0.29468
H           5.02418         2.22918         2.50849
H           5.01555         3.16462         0.97641
H           7.13200         3.66794         2.32529
H          12.39038         4.27171         3.40847
H          11.52516         1.71889         2.65558
H          13.01684         2.20259         3.35243
H          12.28724         0.98893         0.56711
H          13.49612         4.74197        -0.38715

