%chk=OdCC1dCCdCCdCC1dCCdSdS.chk
%NProcShared=20
# opt freq b3lyp/6-31g(2df,p)

Title Card Required 

0  1
O           0.93460        -0.18732         0.10712
C           2.15422        -0.30649         0.20997
C           2.98849         0.56593         1.08467
C           2.54359         0.42737         2.34337
C           3.08739         0.90867         3.57980
C           4.20140         1.61328         3.78019
C           5.13130         2.11100         2.80527
C           5.13198         1.98380         1.47141
C           4.16952         1.30274         0.58351
C           4.45672         1.44160        -0.74147
C           3.57678         1.03058        -1.85410
S           4.16958         0.91684        -3.47705
S           2.76319         0.01393        -4.29480
H           2.71745        -1.04320        -0.38606
H           1.64235        -0.17015         2.51269
H           2.51246         0.61197         4.45768
H           4.45362         1.85437         4.81287
H           5.94498         2.68653         3.25048
H           5.95928         2.49638         0.97607
H           5.36267         1.95905        -1.05906
H           2.52447         0.82774        -1.65741

