%chk=OdCdCC1dCCdC2CdCCdCCdCC2dC[N]CdCCdC1.chk
%NProcShared=20
# opt freq b3lyp/6-31g(2df,p)

Title Card Required 

0  2
O           0.88836         0.06870         0.15074
C           2.05994         0.06680         0.13757
C           3.29899        -0.01005        -0.13733
C           4.88773         0.30869         0.86252
C           6.13463         0.50750         1.42985
C           7.06960         0.88054         2.55887
C           8.53796         0.98048         2.85426
C           8.37576         1.41248         4.17825
C           9.45705         1.58572         4.67039
C          10.53614         1.81360         5.41389
C          11.71436         1.47817         4.53543
C          12.63979         1.85403         5.40200
C          11.83968         1.37746         3.87780
C          10.41275         0.84761         2.43136
C           9.69746         0.34850         0.98206
N           9.76980        -0.16547        -0.53404
C           8.57401        -0.35060        -1.35101
C           8.02289        -0.64461        -2.54956
C           6.34238        -0.72813        -2.03492
C           5.58679        -0.26751        -0.77647
H           3.56708        -0.36898        -1.16221
H           6.77731         0.24724         0.68873
H           6.30091         1.14591         3.36593
H           7.67932         1.65627         4.88412
H          10.03905         1.31722         3.93989
H          10.24921         2.16062         6.37038
H          13.02789         1.11484         3.41131
H          12.34643         2.21104         6.54926
H          13.32034         1.55743         4.51869
H           8.50706         0.32601         0.91684
H           7.68925        -0.25224        -0.81860
H           8.92251        -1.17344        -3.11464
H           6.12057        -1.05060        -3.12115
H           4.81823         0.00211         0.03727

