%chk=OdCdc1[nH]cc2cqc3ccc1-3rdCCdCCdCCdC2.chk
%NProcShared=20
# opt freq b3lyp/6-31g(2df,p)

Title Card Required 

0  1
O           2.07061         0.07679        -0.07225
C           3.41365         0.05160        -0.03813
C           5.14298         0.04628        -0.03027
N           4.79780         0.94856        -1.24422
C           6.06400         1.47325        -1.80454
C           7.17282         2.03134        -3.01349
C           8.24072         1.56242        -2.09578
C           8.45730         0.66643        -0.87187
C           7.57084        -0.18100         0.27758
C           8.74233        -0.42511         0.60924
C           7.31570         0.24777        -0.30430
C           9.23568         2.07340        -2.75413
C          10.34749         1.90697        -2.24119
C          10.36228         2.19136        -3.52146
C          11.85974         2.57346        -3.50727
C          12.34920         3.56318        -4.78640
C          10.63716         3.40817        -4.48361
C           8.50905         3.21206        -4.19542
H           3.88161         1.27379        -1.69766
H           6.11486         0.79861        -1.06897
H           6.69832        -0.58004         0.81959
H           8.65164        -1.20984         1.67473
H           9.59585         3.03603        -3.86105
H          11.16615         1.35401        -1.84373
H           9.55376         3.51906        -4.80489
H          12.81850         2.30671        -3.10235
H          12.43593         4.24804        -5.74390
H          12.28327         3.42285        -4.61100
H           7.16008         2.81643        -3.77388

