%chk=OdCd[SH]C1dCqSrCdCCdCCdCCdCSCdCCdC1.chk
%NProcShared=20
# opt freq b3lyp/6-31g(2df,p)

Title Card Required 

0  1
O           1.56664         0.17643         0.04799
C           3.16922         0.74006         0.47736
S           5.30773         1.85017         1.19961
C           7.26750         3.63716         2.98579
C           6.66890         2.14565         1.74519
S           7.07185         0.47302         0.32701
C           6.01953         2.91066         2.45981
C           7.83481         2.46481         2.06100
C           8.83777         3.74889         3.16264
C           9.99840         3.88426         3.24955
C          10.67463         5.21413         4.36400
C          11.87720         5.07214         4.24406
C          10.43634         5.99703         4.55992
C          12.48473         5.70363         4.67551
S          12.92012         7.54473         6.34982
C          14.74727         7.51793         6.21702
C          13.08334         7.51489         6.54453
C          11.27194         6.06921         5.59251
C           9.24286         4.96936         4.36570
H           4.61228         0.74914        -0.48135
H           6.25348        -0.39981        -0.43853
H           4.34248         2.54718         2.14613
H           8.48398         1.96636         1.60005
H           7.88650         5.00234         4.22322
H          10.33338         3.28792         2.74220
H           9.16397         6.05306         5.14630
H          11.98647         4.40758         3.71098
H          10.78931         7.17071         6.02997
H          13.81436         5.69135         4.80508
H          15.96406         7.17118         6.09574
H          14.56376         8.54671         7.32357
H          13.21274         6.40713         5.53066
H           7.71314         4.27704         3.58828

