%chk=OdCN1CCdC2CdCCdCdC[SH]2SS1.chk
%NProcShared=20
# opt freq b3lyp/6-31g(2df,p)

Title Card Required 

0  1
O           0.88344        -0.18663         0.15496
C           2.10373         0.03781         0.06792
N           2.90603         0.62871         1.01004
C           2.52734         0.79801         2.40347
C           3.41972         0.10453         3.42854
C           4.76840        -0.02958         3.56620
C           5.50291        -0.58955         4.70835
C           4.89564        -1.62970         5.31442
C           5.12060        -2.88616         4.55538
C           5.02176        -2.75770         3.23135
C           4.93668        -2.10166         2.06409
S           5.62334        -0.44112         2.09222
S           5.66586         1.47576         1.33024
S           3.97461         1.74533         0.31274
H           2.66360        -0.22068        -0.84591
H           1.49739         0.43892         2.52793
H           2.52011         1.85743         2.68878
H           2.79698        -0.31788         4.21478
H           6.52500        -0.85405         4.35882
H           3.86249        -1.49078         5.63307
H           5.91287        -3.44254         5.07165
H           4.34566        -2.49517         1.24975
H           6.93931        -0.67800         2.23063

