%chk=OdCNC1dCCdCCdCCdCdCdCCdCS1.chk
%NProcShared=20
# opt freq b3lyp/6-31g(2df,p)

Title Card Required 

0  1
O           2.22299        -0.31382        -0.77822
C           3.62581        -0.56364        -0.77407
N           4.95400        -1.15755        -2.00095
C           6.77919        -1.57177        -2.92030
C           5.89383        -0.39763        -3.20527
C           6.82022         0.39511        -2.55884
C           7.52246         0.43980        -3.73987
C           8.96091         0.52143        -3.82664
C           9.63561         0.36411        -4.99142
C          11.07497         0.18334        -4.87246
C          11.56675         0.45532        -6.04789
C          11.86421         0.41531        -7.21405
C          12.58534        -0.35532        -7.92528
C          12.45316        -1.53210        -6.58496
C          11.01071        -2.01199        -5.57985
S           8.69933        -2.00393        -4.40888
H           3.42268        -0.17369         0.50248
H           3.91932        -0.59364        -2.41433
H           4.82601        -0.24288        -3.67117
H           6.63088         0.38586        -1.33188
H           6.99188        -0.20942        -4.67104
H           9.44218         0.04868        -2.91513
H           9.11441        -0.20280        -5.87896
H          11.60540        -0.29902        -3.98820
H          12.69734        -0.36318        -9.09356
H          13.89289        -1.70860        -7.11714
H          11.88912        -2.30669        -6.74297

