%chk=ONC1CdC2NdCCdCCdC2CdCCdCSS1.chk
%NProcShared=20
# opt freq b3lyp/6-31g(2df,p)

Title Card Required 

0  1
O           0.77750         0.04858         0.40793
N           2.17549         0.35651         0.09356
C           2.48525        -0.53424        -1.04702
C           4.07347        -0.63755        -1.33660
C           4.82374        -1.43852        -2.17835
N           6.21469        -1.45430        -2.03306
C           7.10302        -2.02510        -2.78665
C           7.06489        -2.82918        -4.03999
C           5.97116        -3.19911        -4.65323
C           4.64578        -2.98038        -4.19816
C           4.14864        -2.32663        -3.15916
C           2.77487        -2.71558        -2.94931
C           1.80380        -3.27450        -3.66876
C           0.49877        -3.15223        -3.04612
C          -0.37580        -2.48580        -3.79430
S          -0.71357        -0.87370        -3.12694
S           1.34693         0.04942        -2.72371
H           0.43979         0.91688         0.69586
H           2.62604        -0.08112         0.90701
H           2.16879        -1.49692        -0.63160
H           4.67133        -0.09749        -0.58876
H           8.15882        -1.89482        -2.46437
H           8.01703        -3.14191        -4.46983
H           6.00186        -3.82421        -5.54635
H           3.96047        -3.52854        -4.83501
H           2.44555        -2.45438        -1.98596
H           1.91137        -3.51971        -4.71473
H           0.50436        -2.81239        -2.00193
H          -0.50814        -2.79484        -4.84190

