%chk=ONC1dc2ccccc2dNCdCCdCCdCCdC1.chk
%NProcShared=20
# opt freq b3lyp/6-31g(2df,p)

Title Card Required 

0  1
O           1.23186         0.51398        -0.55162
N           2.03311        -0.14444         0.15594
C           1.39002         0.12344         1.12436
C           3.20570         0.24207         1.31723
C           4.72334         0.57516         2.44853
C           6.21223         0.80523         2.41188
C           7.09477         0.57670         1.29204
C           6.45054         0.00380         0.29908
C           4.87195        -0.02197         0.18425
N           4.86597        -0.33655        -1.17256
C           3.64038        -0.46658        -1.56366
C           2.69597        -0.66273        -2.45186
C           1.35959        -0.72859        -2.70216
C           0.39259        -0.90504        -3.52570
C          -0.72506        -0.77203        -2.80235
C          -1.93888        -0.80427        -3.16944
C          -1.82103        -0.33839        -1.19734
C          -0.51174        -0.09345         0.05737
H           0.88814        -0.46867        -0.70422
H           2.21235        -0.22955        -0.74570
H           4.53447         0.55116         3.50246
H           6.91818         1.16509         3.25487
H           8.18808         0.75288         1.27741
H           7.03817        -0.38214        -0.56673
H           3.49141        -0.33899        -0.58645
H           3.03374        -0.83208        -3.36326
H           0.82066        -0.32771        -2.00833
H           0.68970        -1.11146        -4.46110
H          -0.44283        -0.66996        -1.74748
H          -1.61027        -1.13776        -4.59942
H          -2.70972        -0.59948        -2.40194
H          -0.08286         0.19978         1.22858

