%chk=ONCC1dc2ccccc2dCCdCCCqOrdCCdCCdC1.chk
%NProcShared=20
# opt freq b3lyp/6-31g(2df,p)

Title Card Required 

0  1
O           0.99953         0.37753        -1.09450
N           2.20989        -0.10433        -0.54855
C           3.08607        -0.92911        -1.16358
C           3.13421        -0.41739         0.06024
C           4.38831        -1.54344        -0.74322
C           6.17670        -2.11465        -1.23878
C           6.92490        -3.02379        -2.21062
C           6.27822        -4.06464        -2.96491
C           4.98723        -4.16289        -2.66125
C           4.15288        -3.05354        -1.86657
C           2.88462        -3.33826        -2.03418
C           1.85245        -2.69937        -1.45772
C           0.63878        -2.35031        -1.34536
C          -0.10551        -1.32398        -0.67966
C          -1.47337        -1.45877        -0.67974
O          -2.06019        -2.33315        -1.48924
C          -2.01803        -1.01763         0.44085
C          -3.30238        -0.60078        -0.12538
C          -2.76381         0.52245         0.49897
C          -0.70365         0.82539         0.40772
C           1.07122         0.35465         0.81846
H           0.56881         1.13973        -0.50166
H           2.13005        -0.53233         0.95137
H           2.56809        -0.92515        -2.11754
H           2.97631        -1.94710        -0.02754
H           7.00357        -1.69372        -0.69831
H           8.05424        -3.07744        -2.47115
H           6.81765        -4.73488        -3.65436
H           4.46047        -5.05996        -3.03533
H           2.38394        -4.02784        -2.59536
H           1.85558        -1.99367        -0.76457
H           0.18437        -2.96583        -1.93644
H          -0.36881        -0.27664        -1.59027
H           0.21802        -1.31077         0.52980
H          -1.32769        -2.85856        -1.80104
H          -1.36006        -0.25691         1.50722
H          -4.13817        -1.25387        -0.63010
H          -3.94424         1.24420         0.94706
H          -2.21267         1.05804         0.37611
H           2.41097         0.99414         0.65152

