%chk=OSc1cc2cqc3c1dCCdC3rCdCCd2.chk
%NProcShared=20
# opt freq b3lyp/6-31g(2df,p)

Title Card Required 

0  1
O           0.94642        -0.18210        -0.08371
S           2.45170        -0.62363         0.46531
C           2.81198        -2.08925        -0.43280
C           3.95495        -2.12779        -1.18309
C           4.43487        -3.44892        -1.63450
C           3.54697        -4.60428        -1.79868
C           2.71849        -4.64320        -0.76219
C           2.10845        -3.39443        -0.23306
C           1.22250        -3.82802         0.70049
C           1.79138        -5.12504         1.21518
C           2.55930        -5.67195         0.25190
C           4.40442        -5.69862        -2.37349
C           5.46865        -5.57718        -1.67688
C           5.65196        -4.04582        -1.58297
H           0.74555         0.75116         0.18915
H           4.55341        -1.23764        -1.36088
H           0.32407        -4.40582         0.35210
H           2.11695        -4.90135         2.23722
H           2.79083        -6.70804         0.05865
H           4.70390        -5.54985        -3.44455
H           5.29507        -6.14989        -0.72716
H           6.41653        -3.62936        -2.23875

