%chk=SC1dCCdCSCdCNNdCCdCCdCCdCS1.chk
%NProcShared=20
# opt freq b3lyp/6-31g(2df,p)

Title Card Required 

0  1
S           4.45767         0.54511        -1.52982
C           7.33300         0.85090        -2.53792
C           5.17596         0.69849        -2.03547
C           6.06949         0.41522        -1.10161
C           5.81050         0.95583        -2.88386
S           8.38351         1.15542        -3.54183
C           8.02061         1.48081        -4.61454
C           9.00122         1.57047        -4.91013
N          10.05026         1.89341        -5.97477
N          11.27790         1.85035        -5.83283
C          11.08559         2.23252        -7.09273
C          11.88005         2.03250        -6.43332
C          12.71115         2.51540        -8.02529
C          13.86672         2.46488        -7.85874
C          14.81792         2.91151        -9.33117
C          14.59695         2.41174        -7.68356
C          12.98562         1.93587        -6.11474
S          10.39128         1.37410        -4.26275
H           2.08140         0.43920        -1.18067
H           3.19071         0.75338        -2.21643
H           5.58227         0.11800        -0.12177
H           4.92270         1.10376        -3.37151
H           7.28701         1.51456        -4.72583
H           9.99631         1.03028        -3.12928
H           9.28906         1.98398        -6.27336
H          11.02782         2.46899        -7.87231
H          14.01440         1.83993        -5.79847
H          13.01008         2.85552        -9.14659
H          15.86959         2.36434        -7.52730
H          15.01470         3.30267       -10.62071
H          16.32652         2.70768        -8.65919
H          14.81881         2.30794        -7.34136

