%chk=SC1dCCdCCdC2CdC2CdCSSS1.chk
%NProcShared=20
# opt freq b3lyp/6-31g(2df,p)

Title Card Required 

0  1
S           0.94364         0.11826         0.03899
C           2.49966         0.82067         0.36815
C           3.61572         0.24143         0.08086
C           5.19331         0.56733         0.23322
C           5.95218         1.57636         0.68604
C           7.38802         1.86933         0.81710
C           7.80177         2.99321         1.31450
C           8.81912         3.80010         1.67138
C           7.62656         4.38602         1.93185
C           6.19471         4.64979         2.04923
C           5.35352         5.60749         2.47464
S           3.56084         5.66726         2.50133
S           2.15495         4.21369         1.85687
S           3.13027         2.72082         1.20252
H           0.30874         1.16241         0.49958
H           3.36994         1.05878         0.42595
H           5.73741        -0.26783        -0.13160
H           5.47921         2.43679         1.06295
H           8.10223         1.11622         0.48000
H           9.87104         3.71116         1.63205
H           5.56619         3.89007         1.71183
H           5.76606         6.52437         2.88186

