%chk=SCC1Cd[SH]C2dC1CdCCdCCdCdCdC2.chk
%NProcShared=20
# opt freq b3lyp/6-31g(2df,p)

Title Card Required 

0  1
S           0.67767         0.00104        -0.25872
C           2.28505         0.53703        -1.29570
C           2.26878         1.54256        -3.24598
C           3.32460         1.80104        -1.83841
S           2.20848         2.95955        -2.67281
C           1.41681         1.61936        -4.30038
C           1.62795         2.70597        -5.01364
C           0.60086         3.37138        -6.85856
C          -0.60622         4.11302        -7.99976
C          -1.77117         4.92919        -7.29870
C          -1.84668         3.82757        -6.56950
C          -0.98060         4.13395        -5.36899
C          -0.80215         2.88931        -5.00016
C          -0.56691         1.70914        -4.86197
C           0.26823         0.85093        -4.39417
H           0.63410        -0.37922         1.11425
H           2.93110        -0.56362        -0.60764
H           2.92920         0.82048        -0.03160
H           3.24151         0.62944        -3.01136
H           3.83182         2.39838        -1.01521
H           3.32469         2.98583        -3.44279
H           0.19679         4.55918        -7.70096
H          -1.74442         4.16106        -9.04659
H          -1.49577         6.02376        -7.27760
H          -1.57826         2.80574        -7.39940
H          -0.23364         5.09106        -5.46806
H           0.48826        -0.20435        -4.54020

