%chk=SCN1CdCNdC2CdCCdCNdNNdCCdC21.chk
%NProcShared=20
# opt freq b3lyp/6-31g(2df,p)

Title Card Required 

0  1
S           1.02219         0.10815         0.02555
C           2.90824         0.39723         0.06884
N           3.60830         0.10340         1.41114
C           3.28206        -1.57297         1.18777
C           3.43590        -2.55326         2.06258
N           3.98739        -2.00473         3.16639
C           4.32544        -0.71854         3.40664
C           4.85847        -0.79610         4.69640
C           5.23958         0.35797         5.05359
C           5.78370         0.87838         6.14478
C           6.07571         2.11234         6.28079
N           6.60359         2.55201         7.39858
N           6.91721         3.71686         7.36192
N           6.42920         4.38381         6.19050
C           5.70878         4.20194         4.73308
C           4.95409         2.57610         3.55319
C           4.39485         1.08683         2.80411
H           0.64557         0.82580        -1.05910
H           3.15302         1.39190        -0.09983
H           3.24513        -0.25220        -0.82365
H           2.76281        -2.05031         0.22086
H           3.13697        -3.69036         1.87861
H           4.98211        -1.59089         5.35097
H           5.15864         1.12014         4.43038
H           6.00765         0.30013         6.94134
H           5.91356         2.65454         5.43226
H           6.40604         5.13530         5.54662
H           4.67262         3.04182         2.65866

