%chk=SdC1CdCNdCCdNCdCCdNSCdCSC1.chk
%NProcShared=20
# opt freq b3lyp/6-31g(2df,p)

Title Card Required 

0  1
S           3.89470         0.24114         0.06465
C           6.00206         1.28161        -0.08192
C           4.04180         1.31688        -0.75861
C           5.20523         1.53788        -1.26849
N           5.25468         2.74790        -1.68897
C           6.48651         2.84322        -1.72283
C           7.46236         3.61947        -2.18754
N           8.67782         3.50490        -2.12379
C           9.30721         4.64118        -2.79343
C          10.57890         4.83085        -2.99970
C          11.38850         5.78758        -3.50068
N          12.55235         6.01979        -3.73255
S          13.60566         7.01280        -4.25253
C          14.20681         5.16444        -3.09283
C          12.76550         4.03371        -2.33676
S          10.76465         2.74321        -1.45429
C           8.17239         1.59530        -0.73926
H           3.03405         2.06888        -1.20452
H           6.23070         0.72263        -1.56796
H           6.85920         2.10487        -1.24499
H           7.01046         4.36605        -2.64779
H           8.91428         5.43378        -3.27302
H          10.25768         3.99718        -2.63971
H          11.01228         6.57762        -3.96135
H          15.72514         5.48459        -3.32317
H          13.76199         5.19930        -3.08982
H           7.35746         0.84853         0.19713
H           7.52773         0.27963        -0.59916

