%chk=Sdc1ccc2cqcc1rdC1CdCCdCCdCCdC1Cd2.chk
%NProcShared=20
# opt freq b3lyp/6-31g(2df,p)

Title Card Required 

0  1
S           1.20689         0.01292        -0.10918
C           3.11890        -0.07758        -0.03180
C           3.51590        -1.15934         0.89317
C           4.84544        -1.51300         1.19556
C           6.18945        -2.59441         2.12024
C           7.25768        -1.86324         1.49960
C           6.58231        -0.35966         0.20935
C           4.99840         0.43376        -0.46902
C           8.23564        -3.06593         2.51505
C           9.49487        -2.74719         2.25086
C          10.45202        -3.41974         2.82592
C          11.65755        -3.09221         2.54587
C          11.09293        -3.94973         3.27905
C          12.92954        -4.16731         3.46490
C          13.32088        -5.38008         4.50032
C          11.45674        -4.98502         4.16835
C           9.38135        -4.46198         3.71927
C           7.40817        -3.64497         3.01841
H           2.82362        -1.73930         1.38906
H           5.09611        -0.76596         0.55680
H           7.96911        -0.54911         0.37138
H           3.88781         1.23474        -1.15389
H           9.74039        -2.02507         1.63341
H          10.36913        -4.69014         3.91219
H          12.42134        -2.67664         2.19053
H          10.50674        -5.44699         4.55928
H          14.01946        -3.88538         3.22408
H          13.68745        -6.28794         5.27808
H          13.13414        -5.25096         4.39182
H           5.89956        -3.51335         2.90596

