%chk=SdC1CdCCdCC2dCCdNNCC[SH]1S2.chk
%NProcShared=20
# opt freq b3lyp/6-31g(2df,p)

Title Card Required 

0  1
S           0.68023         0.07026         0.28039
C           2.30783         0.23146        -0.02614
C           3.38023        -0.66760         0.58591
C           3.78560        -1.83991         0.05369
C           3.33861        -2.49555        -1.13575
C           3.07375        -2.00703        -2.37247
C           2.90422        -0.69095        -2.86918
C           1.71961        -0.44579        -3.47577
C           1.52265         0.86287        -4.03775
N           0.49480         1.24715        -4.72370
N           0.39116         2.57232        -4.50648
C           0.21410         2.87869        -3.04760
C           1.46298         2.82532        -1.80460
S           2.81177         1.53687        -1.15816
S           4.03564         0.57759        -2.58534
H           3.80961        -0.38886         1.54985
H           4.53715        -2.44105         0.58512
H           3.21566        -3.57131        -1.04303
H           2.84965        -2.73502        -3.13946
H           0.89009        -1.13304        -3.46810
H           2.21726         1.65450        -3.72855
H           1.12684         3.13789        -4.94302
H          -0.69094         2.30612        -2.77484
H          -0.17691         3.91327        -3.13125
H           0.94697         3.12115        -0.87955
H           2.11622         3.65859        -2.09475
H           3.81561         2.09706        -0.43521

