%chk=Sdc1ccccc2c1dCNd[SH]SSCd2.chk
%NProcShared=20
# opt freq b3lyp/6-31g(2df,p)

Title Card Required 

0  1
S           5.39030         1.70392         1.03547
C           7.89847         2.51732         1.21572
C           5.67770         2.14240         0.54741
C           6.82868         0.95662         0.15886
C           6.38899         3.11190         0.45592
C           7.11807         4.02256         0.62478
C           8.38483         4.45098         0.98460
C           9.80001         3.92404         1.32177
C          11.70169         5.17167         1.42904
N          13.52389         5.48271         1.34771
S          11.97890         5.81537         0.93052
S          11.57553         3.48904         0.58285
S           9.71340         5.77800         1.15459
C           9.41313         3.61136         0.77462
H           3.91332         2.15138         0.48881
H           5.58014         0.05760         0.02816
H           5.06798         3.70079         0.83425
H           7.14133         2.44823         0.01475
H          13.10075         6.37474         1.61186
H          12.65465         7.28781         0.54236
H           9.52496         2.41456         0.53687

