%chk=SdC1SCdCCdCdCSCCdCd[SH]SC1S.chk
%NProcShared=20
# opt freq b3lyp/6-31g(2df,p)

Title Card Required 

0  1
S           1.44302        -1.02038        -0.22332
C           3.22247        -1.91053        -0.55047
S           4.43268        -2.92016         0.61055
C           6.09748        -1.49529         0.39935
C           6.90703        -2.17900        -0.36578
C           8.19417        -1.91887        -0.55918
C           8.89202        -2.95587        -0.74715
C           9.65264        -3.91805        -1.06105
S           9.56935        -5.26231        -0.15017
C          10.51650        -6.45005        -1.04789
C           9.23929        -7.42978        -0.60839
C           9.91782        -8.22385        -1.22016
S           8.12425        -7.15276        -1.62693
S           6.42912        -5.01823        -1.01408
C           4.79507        -2.83131        -1.24881
S           4.12166        -0.55797        -0.40373
H           6.06599        -0.23728         0.08319
H           6.63076        -3.11449        -0.64058
H           8.37403        -0.93701        -0.24846
H          10.65449        -3.69940        -1.24762
H          11.35427        -6.67153        -0.39683
H          10.79915        -6.52536        -2.19537
H           8.66366        -8.55051        -0.14082
H           9.05652        -8.75399        -1.69788
H           5.08517        -1.46071        -1.19667
H           2.76278         0.47533         0.02714

