%chk=Sdc1ccccccc2nccccc-2c1.chk
%NProcShared=20
# opt freq b3lyp/6-31g(2df,p)

Title Card Required 

0  1
S           2.79596        -0.18417         0.35539
C           4.79349        -1.09510         0.66423
C           3.59453        -1.47290        -0.58178
C           4.80437        -1.38143        -1.02240
C           5.41093        -2.61139        -1.22158
C           6.71318        -2.53380        -1.49727
C           7.45137        -3.69301        -1.70751
C           8.78360        -3.38733        -1.66065
C           8.88146        -4.64235        -1.01226
N           9.09450        -5.38965        -2.31683
C           9.71768        -6.73135        -2.82477
C          10.72177        -7.28324        -2.17069
C          10.64635        -6.13463        -0.75917
C           9.71750        -4.77413         0.07062
C           8.24828        -3.35598         0.35798
C           6.64418        -2.13643         0.62611
H           2.86138        -2.28766        -0.57736
H           5.28466        -0.36792        -1.09671
H           4.88470        -3.52490        -0.99941
H           7.45875        -1.62537        -1.04945
H           7.01823        -4.71044        -1.36734
H           9.53410        -2.70130        -1.09749
H           9.39710        -7.30288        -3.75747
H          11.19870        -8.37409        -2.72370
H          11.78802        -7.04444        -0.80276
H          11.00826        -5.18099         0.31509
H           6.22265        -0.70276         0.63495

