%chk=SdC1CdC2CdCCdCSCdCdCC[SH]12.chk
%NProcShared=20
# opt freq b3lyp/6-31g(2df,p)

Title Card Required 

0  1
S           1.82983         0.79965         0.12674
C           3.45371         0.78106         0.56547
C           4.13349        -0.45818         0.15798
C           5.28766         0.16365         0.02149
C           6.62838        -0.31645        -0.15375
C           7.36529         0.67890        -0.43800
C           8.78074         0.67247        -0.35826
C           9.36241         1.75777        -0.77904
S          11.02656         2.18442        -0.65689
C          10.59131         3.87208        -0.29242
C           9.42451         3.97031         0.38560
C           8.49081         3.43427         1.19270
C           6.70906         2.76836         1.25236
S           4.89853         1.94773         0.26853
H           3.83787        -1.53669         0.00370
H           6.90959        -1.35517         0.01562
H           6.92686         1.65592        -0.72996
H           9.22179        -0.20587         0.06378
H           8.67264         2.59207        -1.01783
H          11.23578         4.70930        -0.56659
H           9.25548         3.14769         1.99590
H           6.33494         3.79288         1.15996
H           6.65077         2.36680         2.25284
H           4.44877         2.53926        -0.86200

