%chk=SdC1CdCCdCCdCCdCNdCCdCCdCCdC1.chk
%NProcShared=20
# opt freq b3lyp/6-31g(2df,p)

Title Card Required 

0  1
S           4.15352         0.87572         0.57104
C           6.90339         1.63964         1.14755
C           4.41944         1.39794         0.96515
C           5.66791         1.34559         0.92564
C           5.52201         2.48893         1.78849
C           7.10331         2.77643         2.00545
C           7.73384         3.46158         2.52253
C           9.04036         3.73647         2.72997
C           9.61556         4.45899         3.27524
C          10.66554         4.54088         3.33704
N          11.30019         5.80396         4.29026
C          12.24355         5.27567         3.89157
C          13.17869         6.45036         4.77808
C          14.41868         6.14107         4.54466
C          15.21013         6.76821         5.01795
C          14.09710         5.25725         3.87767
C          11.84740         3.85910         2.82252
C           9.58731         2.75508         1.98934
H           2.91699         1.93835         1.37298
H           5.44221         0.32989         0.15911
H           4.91278         3.01434         2.18500
H           8.54298         2.18574         1.55968
H           7.10274         3.99589         2.92575
H          10.56704         2.54471         1.83058
H           9.23012         5.06565         3.73308
H          11.17758         3.16922         2.30188
H          13.29674         4.18972         3.07203
H          13.38735         7.17213         5.32278
H          15.81659         5.37111         3.96360
H          15.51181         8.10423         6.02621
H          15.96540         6.12698         4.53403
H          13.59872         4.89309         3.60285
H           8.02283         1.59458         1.11354

