%chk=SdC1CdCCdCCdCNdNNdNCdC1.chk
%NProcShared=20
# opt freq b3lyp/6-31g(2df,p)

Title Card Required 

0  1
S           3.25531        -0.31684        -0.22807
C           5.48311        -1.06430        -0.98467
C           3.47763        -1.10230        -1.02314
C           4.92990        -1.18471        -1.10656
C           5.29784        -2.22584        -2.16041
C           6.44103        -2.06688        -1.99950
C           6.95145        -3.01443        -2.95864
C           8.16072        -2.85191        -2.79414
N           9.26170        -3.60166        -3.55305
N          11.00924        -2.91157        -2.85453
N          10.70606        -4.42876        -4.39027
N          11.19196        -3.35449        -3.30287
C           9.61015        -2.44728        -2.38456
C           7.81789        -1.73104        -1.65958
H           2.82262        -1.70145        -1.62962
H           5.78428        -0.17494        -0.08443
H           4.73421        -2.66684        -2.60681
H           7.64942        -0.93299        -0.85174
H           6.99175        -3.68690        -3.63935
H           9.05541        -1.68859        -1.61659
H          10.45383        -3.58772        -3.53895
H           6.86822        -0.57351        -0.48788

