%chk=SdC1SCdCCdCdCd[SH]CSSSN1NS.chk
%NProcShared=20
# opt freq b3lyp/6-31g(2df,p)

Title Card Required 

0  1
S           1.84523         0.65056         0.68959
C           3.33174         1.63011         1.37086
S           4.17856         2.46972        -0.14512
C           5.91085         1.52535        -0.19736
C           6.82736         2.19857         0.48503
C           8.08547         1.78316         0.99473
C           8.88383         2.69350         1.55043
C           9.64320         3.47767         1.97651
S          10.82293         4.39980         2.58666
C           9.85845         5.47150         3.50693
S           8.75511         6.11771         4.59237
S           6.78470         4.86167         3.58536
S           5.74837         2.58813         3.12149
N           4.53112         1.03638         1.92707
N           4.44994        -0.21039         0.64333
S           4.74771        -1.66231        -0.30235
H           6.15784         0.43444        -0.18318
H           6.39660         3.09093         0.87715
H           8.43317         0.84090         0.59512
H          11.08086         5.26571         1.61550
H           9.63121         4.71400         4.29210
H           9.27602         6.00116         2.76602
H           3.59892         0.06779         0.05261
H           4.56512        -3.08141        -0.56958

