%chk=Sdc1ccc2cccccccccc-2c1.chk
%NProcShared=20
# opt freq b3lyp/6-31g(2df,p)

Title Card Required 

0  1
S           1.30467        -0.24718         0.07451
C           3.17990        -0.36787         0.20357
C           3.58408         1.05858         0.07414
C           4.85937         0.97047         0.42511
C           5.80166        -0.40317         0.91118
C           6.80210         0.13564         1.53513
C           7.55022        -0.85182         2.05242
C           8.69919        -0.86776         2.59184
C           9.09139        -1.99030         3.24853
C          10.22250        -2.22728         3.84423
C          10.30147        -3.65858         4.36022
C          11.00779        -3.79103         3.24936
C           9.42216        -3.93319         2.13615
C           7.71246        -3.35079         1.42520
C           6.08393        -2.25944         0.95883
C           4.44887        -1.84832         0.44000
H           2.95890         2.00730        -0.18723
H           5.24138         2.03896         0.43943
H           7.05779         1.13613         1.71062
H           7.19080        -1.80699         2.21824
H           9.14543         0.02066         2.76829
H           8.42911        -2.84367         3.34584
H          10.98196        -1.44170         3.80874
H           9.91160        -4.79319         4.15242
H          12.05021        -3.25891         4.12799
H          10.53329        -4.76556         2.44707
H           6.96860        -3.88135         0.89951
H           3.42928        -2.27384        -0.00242

