%chk=SdC1CdCCdCCdCC2dC1SCd[SH]S2.chk
%NProcShared=20
# opt freq b3lyp/6-31g(2df,p)

Title Card Required 

0  1
S           5.10568        -1.22776        -3.81231
C           5.75004        -2.65386        -2.85426
C           4.61213        -2.23157        -1.52259
C           4.93098        -1.62049        -0.35411
C           5.85913        -2.60997         0.01429
C           7.18847        -2.28839        -0.06440
C           7.87826        -3.40436        -0.49301
C           8.80478        -2.83351        -1.35797
C           8.71986        -3.46042        -2.54983
C           7.44020        -3.56586        -3.13073
S           7.65214        -5.30454        -4.01962
C           9.42033        -6.21297        -3.71513
S          10.42433        -6.04839        -2.21656
S          10.41794        -4.09473        -2.44103
H           3.55871        -2.58831        -1.44482
H           5.40962        -0.62930        -0.24945
H           5.59477        -3.62822        -0.31999
H           7.49267        -1.28372        -0.37281
H           7.37735        -4.33647        -0.82384
H           9.38399        -1.96284        -1.30482
H           9.84861        -7.00030        -4.37579
H          11.75561        -6.33667        -2.43738

