%chk=SdC1CdC2CdCdC2NdCCdCCdCCdCS1.chk
%NProcShared=20
# opt freq b3lyp/6-31g(2df,p)

Title Card Required 

0  1
S           1.01444         0.89622        -0.81946
C           2.68856         1.38124        -1.32530
C           3.39486         0.11892        -0.00878
C           4.60842        -0.38920         0.52115
C           5.27364        -1.48651         1.66558
C           6.09035        -0.81099         0.96105
C           6.09058         0.03992         0.07361
N           5.43963         0.90668        -0.83037
C           6.08010         1.65310        -1.60884
C           5.55531         2.56670        -2.56167
C           6.30012         3.33289        -3.36076
C           5.52744         4.13147        -4.19363
C           5.46284         5.05293        -5.15465
C           3.72629         5.30885        -5.42155
C           2.70561         4.48244        -4.55966
S           2.44765         2.92229        -2.93252
H           2.71274        -0.50434         0.64123
H           5.11445        -2.24300         2.45455
H           7.13055         1.64219        -1.59746
H           4.51297         2.64423        -2.64252
H           7.35347         3.36384        -3.39303
H           4.57859         3.81268        -3.86115
H           6.47430         5.37511        -5.49067
H           3.49348         6.08360        -6.22958
H           3.70627         4.55790        -4.63836

