%chk=Sdc1ccc2cqcc1rdCCdCSCdCd2.chk
%NProcShared=20
# opt freq b3lyp/6-31g(2df,p)

Title Card Required 

0  1
S           1.52159        -0.12146        -0.20937
C           3.29674         0.27621         0.10333
C           3.59609         1.51611         1.07831
C           4.84713         1.96932         1.43469
C           6.14795         2.95983         2.21357
C           6.91856         1.67804         1.20564
C           6.36621         0.27221         0.10019
C           4.91607        -0.34810        -0.38759
C           8.22920         1.84535         1.33721
C           9.31834         2.57006         1.90707
C           9.32876         3.81673         2.88738
S          11.15257         3.82189         2.89144
C           9.26604         4.20771         3.19482
C           7.45381         3.80652         2.87935
H           2.65102         1.87757         1.36254
H           5.08348         1.17265         0.80824
H           7.52516         0.16672         0.01724
H           4.28134        -1.19994        -1.05742
H           8.14876         2.63805         1.96054
H          10.11444         2.01705         1.47222
H           8.33216         4.99610         3.81476
H          10.05210         5.12071         3.91274

