%chk=Sdc1cccc2cc-2sc2cqss1rdCCd2.chk
%NProcShared=20
# opt freq b3lyp/6-31g(2df,p)

Title Card Required 

0  1
S           0.92595         0.08247        -0.14843
C           2.63426         0.08176        -0.13452
C           3.23726         0.01148         1.22658
C           4.54308         0.00456         1.36065
C           5.33443        -0.05714         2.55553
C           6.64070        -0.05298         2.47491
C           7.83669        -0.08188         3.03473
C           7.94055        -0.01278         1.69631
S           7.24188         0.06493         0.19129
C           7.62857         0.14776        -1.41285
C           6.72736         0.20584        -2.53772
S           5.03252         0.22569        -2.92207
S           3.39956         0.16333        -1.71445
C           7.80679         0.24839        -3.36181
C           8.68570         0.18985        -2.22810
H           2.61044        -0.03432         2.11365
H           5.02246         0.05365         0.40989
H           4.84507        -0.10713         3.52371
H           8.21600        -0.13266         4.01813
H           7.94755         0.30432        -4.44502
H           9.75233         0.17914        -2.02056

