%chk=SdC1CdCCdCSCqdSrCdC1.chk
%NProcShared=20
# opt freq b3lyp/6-31g(2df,p)

Title Card Required 

0  1
S           2.69557        -0.44326        -0.07252
C           4.36953         0.31570         0.06532
C           3.52182         1.47611         0.62496
C           4.50992         2.13850         0.65737
C           5.13308         3.34501         0.92182
C           6.42936         3.36709         0.94007
S           7.82885         4.25404         1.17605
C           8.95998         2.46709         0.70458
S          10.64491         2.31006         0.66463
C           7.82802         1.00702         0.33085
C           6.32363         0.31117         0.12690
H           2.77292         2.25212         0.53714
H           5.38465         1.64013         0.48981
H           4.55592         4.12249         1.14301
H           6.65141         2.40281         0.68929
H           8.03164         2.20211         0.63425
H           6.05705        -0.69338        -0.12264

