%chk=SdC1NdCCdCCdCCdCNdC2CdCCdC2O1.chk
%NProcShared=20
# opt freq b3lyp/6-31g(2df,p)

Title Card Required 

0  1
S           4.13242         0.26931        -0.28509
C           6.55109         0.63212        -0.90880
N           4.50827         0.74301        -1.05185
C           5.62331         0.98832        -1.43144
C           5.34536         1.64024        -2.54120
C           6.57314         1.77233        -2.45162
C           7.40995         2.24852        -3.43217
C           8.71559         2.28022        -3.52561
C           9.40752         2.85534        -4.48127
C          10.60702         2.96915        -4.65169
N          11.48016         3.40348        -5.36714
C          12.08099         2.64757        -4.18063
C          13.07574         3.60616        -5.70240
C          13.84020         3.04856        -4.80778
C          12.45843         2.17685        -3.40164
C          10.67761         1.70695        -2.66383
O           8.59753         1.10534        -1.67016
H           5.69929         0.08207         0.06904
H           4.68361         2.01099        -3.12352
H           7.46394         1.61600        -2.65448
H           6.93505         2.67113        -4.17806
H           9.13436         1.82365        -2.75925
H           9.04970         3.32785        -5.24704
H          10.72921         2.53249        -3.83228
H          13.40166         4.38457        -6.95713
H          15.07087         3.62271        -5.74140
H          13.97076         2.38809        -3.74313

