%chk=SdCC1dCCdCCdCCdC1NdN[SH]dS.chk
%NProcShared=20
# opt freq b3lyp/6-31g(2df,p)

Title Card Required 

0  1
S           0.85047         0.04026         0.03258
C           2.52765         0.18612         0.16902
C           3.39782         1.37755        -0.20142
C           2.96957         2.43066         0.51738
C           3.34497         3.77757         0.80832
C           4.36575         4.57040         0.48823
C           5.46382         4.41266        -0.39643
C           5.85178         3.43708        -1.21972
C           5.44908         2.08613        -1.51718
C           4.52891         1.17116        -1.13064
N           4.74464        -0.11019        -1.69820
N           3.83635        -0.96475        -1.67763
S           4.17481        -2.43483        -2.34627
S           2.79554        -3.53709        -1.45822
H           3.11211        -0.66806         0.55868
H           2.06729         2.26433         1.11631
H           2.62945         4.24508         1.49301
H           4.35057         5.55487         0.96575
H           6.08687         5.31334        -0.40960
H           6.73142         3.71857        -1.80891
H           6.14706         1.70733        -2.27394
H           5.26608        -2.82968        -1.72800

