%chk=SSC1dCCdCCdCCdCdCdCCdCCdCS1.chk
%NProcShared=20
# opt freq b3lyp/6-31g(2df,p)

Title Card Required 

0  1
S           2.65768         0.41160        -0.26912
S           5.19564         1.37342        -0.19605
C           7.30149         2.10285        -1.20549
C           6.17602         1.37604        -1.88924
C           5.67650         1.84644        -3.13801
C           6.89380         2.06527        -3.58410
C           7.34831         3.09483        -4.39026
C           8.65467         3.27762        -4.57771
C           9.28566         4.16641        -5.48876
C          10.58115         4.27114        -5.66199
C          11.75661         4.41616        -5.90513
C          13.01523         4.61350        -6.19960
C          13.88952         4.34844        -5.20419
C          14.93673         4.10979        -4.51466
C          13.46399         3.53454        -3.34303
C          11.76198         3.11952        -2.92489
S           9.63872         2.35795        -1.77180
H           1.24934        -0.40917         0.55311
H           6.34612         0.32379        -1.46543
H           4.79091         2.46069        -3.39936
H           7.71098         1.56357        -3.04556
H           6.57039         3.65847        -4.84115
H           9.38038         2.67374        -4.08046
H           8.55810         4.64336        -6.12379
H          13.49194         4.84747        -7.11767
H          13.73548         5.16661        -4.48656
H          15.65549         4.52815        -5.61194
H          14.84800         3.65713        -2.90493
H          13.05431         3.00420        -2.48142

