%chk=SSC1dNC2dCC2dCCdCNdCS1.chk
%NProcShared=20
# opt freq b3lyp/6-31g(2df,p)

Title Card Required 

0  1
S           0.58030         0.00668         0.40093
S           2.54970         0.08078        -0.08133
C           2.57257         0.36433        -1.92676
N           3.88799         0.39908        -2.15295
C           4.84218         0.54719        -3.11689
C           6.00621         0.62232        -3.60586
C           4.95225         0.76911        -4.56119
C           3.66668         0.81556        -4.86353
C           2.72130         0.98021        -5.93513
C           1.49557         0.90516        -5.44668
N           0.18115         0.92918        -5.60304
C          -0.34176         0.74337        -4.39369
S           0.63056         0.46810        -2.60213
H           0.61630        -0.19385         1.70605
H           7.08268         0.61104        -3.53248
H           3.08317         0.68010        -3.98192
H           2.95457         1.13697        -6.95539
H           1.59812         0.74961        -4.43430
H          -1.46958         0.74662        -4.41482

