%chk=CC1CNCCqCrCqCNrCOCC1O.chk
%NProcShared=20
# opt freq b3lyp/6-31g(2df,p)

Title Card Required 

0  1
C           0.95882        -0.12342         0.40301
C           2.46639        -0.12036         0.14633
C           2.90725        -1.29061        -0.82599
N           1.86603        -1.97781        -1.59807
C           1.50299        -1.63544        -2.98269
C           0.79857        -0.26395        -3.26399
C          -0.25532        -0.36969        -4.37651
C           1.75073         0.92186        -3.65295
C           3.12904         0.71594        -3.11412
N           4.04709         1.81316        -3.27860
C           1.22734         2.30210        -3.16387
O           1.97927         2.90977        -2.08220
C           1.88250         2.39960        -0.74954
C           2.96824         1.36946        -0.10148
O           4.32759         1.45119        -0.55469
H           0.59304        -1.09071         0.74720
H           0.41928         0.10673        -0.51135
H           0.67614         0.63723         1.13524
H           2.92956        -0.39833         1.10776
H           3.32783        -2.06705        -0.16573
H           3.78757        -1.07356        -1.43614
H           1.03498        -2.14129        -1.03686
H           0.81194        -2.43488        -3.28435
H           2.35968        -1.78966        -3.64823
H           0.21196        -0.00910        -2.38286
H           0.20956        -0.57309        -5.34559
H          -0.80037         0.57903        -4.45591
H          -0.99187        -1.15069        -4.16689
H           1.85186         0.92971        -4.74502
H           3.61325        -0.21330        -3.38319
H           2.85416         0.61069        -2.08871
H           4.91556         1.51947        -3.72526
H           4.27707         2.22426        -2.36504
H           0.14898         2.32386        -2.96462
H           1.36885         2.98215        -4.01868
H           0.85838         2.06767        -0.60366
H           1.95679         3.29840        -0.12296
H           3.08697         1.77166         0.91544
H           4.52193         0.74006        -1.20384

