%chk=CC1CC2CCOCC2CC1OO.chk
%NProcShared=20
# opt freq b3lyp/6-31g(2df,p)

Title Card Required 

0  1
C           1.05894         0.13430         0.04236
C           2.59136         0.03718        -0.00330
C           3.09895        -1.21026         0.74107
C           2.65351        -2.48729         0.02741
C           3.14079        -3.75125         0.73121
C           2.63583        -4.96628        -0.03869
O           3.08054        -4.93431        -1.39621
C           2.61377        -3.78435        -2.10825
C           3.11501        -2.50312        -1.44235
C           2.66571        -1.24036        -2.19614
C           3.11393         0.03280        -1.45739
O           4.55323         0.03701        -1.49255
O           4.98747         1.29403        -0.90520
H           0.70461         0.15579         1.07764
H           0.56194        -0.70837        -0.44759
H           0.71325         1.04264        -0.45979
H           2.98827         0.91406         0.52275
H           2.73237        -1.20484         1.77429
H           4.19514        -1.18215         0.80232
H           1.55688        -2.52592         0.04911
H           2.77825        -3.78007         1.76466
H           4.23724        -3.75866         0.75908
H           1.54023        -5.01729        -0.01840
H           3.01806        -5.88241         0.42066
H           1.51863        -3.81033        -2.16221
H           2.99666        -3.85299        -3.13172
H           4.21404        -2.53745        -1.44926
H           1.57689        -1.24207        -2.32187
H           3.09703        -1.25180        -3.20455
H           2.75764         0.91582        -2.00087
H           5.93518         1.05594        -0.85060

