%chk=CC1CqNrNCC1OCqdOrCCO.chk
%NProcShared=20
# opt freq b3lyp/6-31g(2df,p)

Title Card Required 

0  1
C           0.93344         0.00892         0.04807
C           2.45966        -0.07928         0.07294
C           3.06412         1.02042         0.94782
N           2.39495         1.26692         2.20447
N           4.37482         0.52074         1.27712
C           4.26549        -0.93412         1.44751
C           3.02043        -1.39079         0.65193
O           3.38854        -2.33150        -0.39467
C           2.35442        -2.91596        -1.06005
O           1.16936        -2.72401        -0.80605
C           2.78954        -3.86849        -2.13618
C           1.55713        -4.28870        -2.93987
O           1.89684        -5.26277        -3.91768
H           0.61312         0.97401        -0.35219
H           0.50884        -0.12186         1.04902
H           0.46399        -0.73886        -0.58263
H           2.83280         0.03730        -0.95482
H           3.13674         1.96351         0.39609
H           2.23229         0.38937         2.69104
H           1.45876         1.62107         1.99647
H           4.69979         0.98412         2.12416
H           4.12732        -1.15447         2.51443
H           5.18837        -1.42574         1.12565
H           2.32056        -1.87071         1.34860
H           3.24504        -4.74882        -1.67237
H           3.52303        -3.40305        -2.80252
H           1.09319        -3.43071        -3.44236
H           0.79491        -4.73090        -2.28727
H           2.48682        -4.84123        -4.56436

