%chk=Cc1cc2cccsc-2cccsccs1.chk
%NProcShared=20
# opt freq b3lyp/6-31g(2df,p)

Title Card Required 

0  1
C           1.15042         0.64549        -0.51831
C           2.63965         1.14464        -0.66014
C           3.35641         0.33128         0.26212
C           4.78811         0.05585         0.69265
C           5.27524        -0.97667         1.46913
C           6.72440        -1.16315         1.73917
C           7.68799        -0.39412         1.22400
S           7.42155         0.88345         0.14829
C           5.73370         1.08913         0.36082
C           5.21346         2.31112         0.16401
C           5.90935         3.32506        -0.50623
C           5.17799         4.44395        -0.67984
S           5.54529         5.61369        -1.81611
C           3.83557         5.36677        -2.29506
C           3.49834         4.16965        -2.89563
S           3.22980         2.22207        -2.31894
H           0.96443         0.26024         0.51259
H           0.93558        -0.26179        -1.10898
H           0.38521         1.40722        -0.61817
H           2.75697        -0.21174         1.01482
H           4.68663        -1.77508         1.93332
H           7.07739        -2.02048         2.31560
H           8.74113        -0.57012         1.39675
H           4.16132         2.50011         0.36836
H           6.84453         3.15376        -0.99302
H           4.14881         4.40093        -0.34406
H           3.60243         6.35158        -2.73434
H           4.06181         4.24615        -3.87823

