%chk=CC1dCdCCdC1OCCSCCCCN.chk
%NProcShared=20
# opt freq b3lyp/6-31g(2df,p)

Title Card Required 

0  1
C           1.16253         0.32199        -0.15379
C           2.58734         0.07392        -0.00013
C           3.26754        -0.64764         0.93120
C           3.94774        -1.36920         1.86252
C           4.70871        -1.11964         0.35702
C           3.75668        -0.02774        -0.67618
O           3.86501         0.36517        -2.05834
C           3.76406         1.78843        -2.58954
C           2.60362         2.55909        -3.56123
S           3.47217         3.80178        -4.89550
C           2.15324         4.68968        -5.99426
C           2.83374         5.57848        -7.11701
C           1.86533         6.33094        -8.08188
C           2.60298         7.16764        -9.15811
N           1.66266         7.86837       -10.03795
H           0.63294        -0.26374         0.61482
H           0.81264        -0.05223        -1.11938
H           0.89877         1.36915        -0.02171
H           4.19914        -1.72910         2.81333
H           5.63445        -1.51894         0.05504
H           4.57503         1.74457        -3.32549
H           4.08769         2.50219        -1.82585
H           1.98335         3.23530        -2.95407
H           1.96497         1.87889        -4.12958
H           1.53450         5.34474        -5.37121
H           1.52056         3.94296        -6.48271
H           3.48265         4.94621        -7.73576
H           3.47607         6.33412        -6.64634
H           1.21750         7.00297        -7.50557
H           1.21527         5.60838        -8.58972
H           3.24360         6.52758        -9.77490
H           3.24484         7.91870        -8.68433
H           1.09759         7.19592       -10.55536
H           2.17951         8.39431       -10.74565

