%chk=CCC1CC1CCCdCCCC1CC1.chk
%NProcShared=20
# opt freq b3lyp/6-31g(2df,p)

Title Card Required 

0  1
C           1.07786        -0.06607         0.01214
C           2.59942        -0.06161         0.04776
C           3.10530        -0.23888         1.45095
C           4.09639        -1.33406         1.75692
C           4.53543         0.10526         1.80238
C           4.83829         0.77406         3.11573
C           5.27223         2.22567         2.88951
C           5.60686         2.93028         4.16809
C           6.01990         4.20805         4.19286
C           6.35412         4.91507         5.47034
C           6.78540         6.36152         5.22385
C           7.11643         7.06335         6.51031
C           8.35526         7.91663         6.60317
C           7.00080         8.56407         6.58362
H           0.71146         0.04827        -1.01207
H           0.67474         0.75607         0.61355
H           0.68176        -1.00221         0.41982
H           2.96584         0.88585        -0.36345
H           2.97283        -0.86203        -0.60214
H           2.35071        -0.01264         2.19728
H           4.47116        -1.93943         0.93732
H           3.97995        -1.88353         2.68318
H           5.21450         0.41927         1.01702
H           5.64064         0.22560         3.62428
H           3.96551         0.74725         3.78226
H           4.47195         2.76755         2.37017
H           6.15412         2.23739         2.23646
H           5.51459         2.38098         5.10177
H           6.11516         4.75802         3.25910
H           7.15934         4.37847         5.98727
H           5.47558         4.90711         6.12776
H           5.97836         6.90001         4.71117
H           7.65466         6.37590         4.55396
H           6.82168         6.50560         7.39291
H           8.98014         8.02918         5.72411
H           8.90856         7.89734         7.53502
H           6.71137         9.10748         5.69102
H           6.61495         8.99113         7.50233

