%chk=CCC1CC2CCC1CqCqCCrOC1CC1CrCC2.chk
%NProcShared=20
# opt freq b3lyp/6-31g(2df,p)

Title Card Required 

0  1
C           0.84881         0.09003         0.03357
C           2.36723         0.10718        -0.02797
C           2.85316        -0.15762        -1.46605
C           2.41956         0.97412        -2.43761
C           3.44923         1.27606        -3.53695
C           4.70124         1.81602        -2.85733
C           5.02951         1.04614        -1.59207
C           4.38946        -0.35353        -1.50794
C           4.87233        -1.31502        -2.64036
C           6.36174        -1.07053        -3.06424
C           7.45676        -1.29118        -1.97011
C           7.51067        -0.46526        -0.68412
O           6.65144        -1.90334        -4.21895
C           7.93363        -1.61510        -4.81626
C           8.03197        -1.61079        -6.32268
C           8.05207        -0.29798        -5.56722
C           9.29561         0.49907        -5.39174
C           3.89365        -1.29046        -3.84246
C           3.74017         0.08769        -4.48229
H           0.50279         0.26027         1.05547
H           0.46694        -0.87996        -0.30270
H           0.41952         0.86466        -0.60780
H           2.74977        -0.67522         0.64080
H           2.75095         1.06154         0.34923
H           2.35667        -1.09163        -1.74992
H           2.28286         1.90260        -1.86342
H           1.45003         0.74172        -2.88621
H           3.07778         2.09214        -4.16836
H           4.58000         2.86910        -2.57862
H           5.55199         1.81081        -3.55044
H           4.78445         1.61897        -0.69160
H           6.10139         1.02289        -1.60210
H           4.67563        -0.84272        -0.56953
H           4.81229        -2.34612        -2.25561
H           6.44838        -0.05421        -3.44111
H           8.42452        -1.08419        -2.43881
H           7.47266        -2.35164        -1.70541
H           7.75233         0.58588        -0.88659
H           8.31928        -0.80787        -0.03565
H           6.60169        -0.53009        -0.08722
H           8.80469        -2.01137        -4.31655
H           7.14722        -1.84276        -6.89496
H           8.95443        -1.97977        -6.74493
H           7.18469         0.32833        -5.69340
H          10.17133        -0.12549        -5.19789
H           9.17660         1.18297        -4.54181
H           9.49429         1.10423        -6.28308
H           2.89942        -1.64967        -3.54555
H           4.18969        -2.02476        -4.60132
H           2.91691         0.02553        -5.20442
H           4.63990         0.29290        -5.07462

