%chk=CCC1NNOC2CCqNrCqC2rCqCrCO1.chk
%NProcShared=20
# opt freq b3lyp/6-31g(2df,p)

Title Card Required 

0  1
C           1.06780        -0.07504        -0.06579
C           2.58658        -0.08019        -0.03167
C           3.07064        -0.53616         1.34524
N           3.60429        -1.89941         1.28121
N           3.48878        -2.53382         2.51518
O           4.74657        -2.70742         3.30332
C           4.51448        -2.76481         4.74771
C           4.26506        -1.65018         5.97858
C           5.21046        -0.67702         5.48687
N           5.89130        -0.42112         6.71260
C           3.93294        -0.24688         4.79960
C           3.17712        -2.14418         4.73404
C           4.62030         0.98916         3.85911
C           4.98616         2.51135         4.36056
C           3.67403         1.23078         2.73381
O           4.10251         0.34565         1.72444
H           0.70620         0.20601        -1.05672
H           0.67255         0.64701         0.65879
H           0.67216        -1.06304         0.18868
H           2.96036         0.92233        -0.28099
H           2.96682        -0.75175        -0.80894
H           2.22718        -0.47193         2.04824
H           4.59154        -1.82880         1.06502
H           2.97427        -3.42012         2.50378
H           5.15665        -3.45830         5.27516
H           4.16597        -1.95168         7.01285
H           2.98587        -1.15135         6.18749
H           5.93760        -0.99888         4.72384
H           5.26633        -0.19704         7.46724
H           6.61238         0.27681         6.59690
H           3.36898         0.35970         5.51762
H           2.37172        -2.56951         4.21609
H           2.89156        -2.84436         5.69449
H           5.61337         0.66168         3.51388
H           4.13214         3.14359         4.64990
H           5.40159         3.06625         3.48411
H           5.78842         2.63503         5.10241
H           3.70328         2.25113         2.34147
H           2.66447         1.07539         3.12881

