%chk=CCC1CqNrC1CNOC1CCCCCN1.chk
%NProcShared=20
# opt freq b3lyp/6-31g(2df,p)

Title Card Required 

0  1
C           1.00033        -0.06733         0.02229
C           2.51580        -0.12020         0.04737
C           3.14665        -1.35949        -0.52069
C           3.23856        -2.62470         0.29760
N           2.54446        -2.77477         1.57755
C           2.42866        -2.61887        -0.96996
C           2.93469        -3.38365        -2.16551
N           1.95235        -3.19380        -3.22809
O           2.48137        -3.91471        -4.38834
C           1.54114        -3.79064        -5.47599
C           1.56258        -5.09861        -6.27309
C           0.36687        -5.28316        -7.20777
C           0.12962        -4.13779        -8.19149
C          -0.29008        -2.84142        -7.50113
C           0.88730        -1.98984        -7.02541
N           1.95774        -2.67522        -6.31743
H           0.65635         0.89019         0.42843
H           0.54742        -0.85704         0.62561
H           0.62090        -0.16122        -0.99907
H           2.87570         0.03000         1.07243
H           2.88736         0.73941        -0.52413
H           4.03386        -1.08384        -1.08899
H           4.19728        -3.14133         0.27176
H           1.62674        -2.33158         1.56789
H           3.06230        -2.32679         2.33032
H           1.35384        -2.71921        -0.85417
H           3.04062        -4.44538        -1.91774
H           3.91608        -3.01045        -2.48714
H           2.00470        -2.22134        -3.52880
H           0.54251        -3.63756        -5.04714
H           1.59377        -5.94697        -5.57696
H           2.49385        -5.17248        -6.85130
H          -0.53785        -5.43566        -6.60468
H           0.51134        -6.20950        -7.77715
H          -0.67898        -4.44086        -8.86753
H           1.01801        -3.97831        -8.81335
H          -0.96387        -3.05671        -6.66228
H          -0.87411        -2.23763        -8.20640
H           0.49743        -1.17976        -6.39720
H           1.33914        -1.50372        -7.89893
H           2.45315        -2.01229        -5.72642

