%chk=CCC1CSC1NC1COC1CC.chk
%NProcShared=20
# opt freq b3lyp/6-31g(2df,p)

Title Card Required 

0  1
C           1.38247         0.58695         0.43710
C           2.82117         0.17606         0.19017
C           3.08112        -1.13333        -0.61620
C           4.52485        -1.61579        -0.22455
S           4.11494        -3.31945        -0.67015
C           2.49076        -2.56016        -0.23272
N           1.54414        -3.11527        -1.21723
C           0.10511        -2.81199        -1.10580
C          -0.38923        -2.49120         0.31442
O          -1.00369        -1.26184        -0.18337
C          -0.15207        -1.32999        -1.36855
C          -0.76265        -0.61907        -2.55712
C           0.30192        -0.46255        -3.63835
H           1.29675         1.41373         1.14465
H           0.84296        -0.23760         0.89391
H           0.88158         0.93459        -0.47296
H           3.27145         0.08726         1.18260
H           3.31987         1.00737        -0.32251
H           3.01718        -0.91420        -1.69682
H           4.76229        -1.51823         0.84235
H           5.34404        -1.16402        -0.79085
H           2.27215        -2.73039         0.81987
H           1.70989        -4.11005        -1.32750
H          -0.55661        -3.47125        -1.68063
H           0.33165        -2.26264         1.10611
H          -1.12556        -3.17495         0.74113
H           0.77602        -0.79531        -1.23641
H          -1.07188         0.39025        -2.25002
H          -1.64696        -1.13983        -2.92814
H           1.09903         0.21544        -3.30230
H          -0.12505        -0.04193        -4.55103
H           0.77260        -1.42295        -3.86828

