%chk=CCC1CCCCCCCCCqCrCqCrCC1.chk
%NProcShared=20
# opt freq b3lyp/6-31g(2df,p)

Title Card Required 

0  1
C           0.88534         0.09968         0.32246
C           2.38981        -0.04360         0.20072
C           2.86832        -0.93220        -0.97025
C           1.75290        -1.68463        -1.74886
C           1.66555        -3.16547        -1.35880
C           2.36854        -4.03591        -2.40616
C           3.51383        -4.85184        -1.80895
C           4.62032        -5.09266        -2.84219
C           6.01963        -4.92080        -2.23834
C           6.98528        -4.15667        -3.15548
C           7.25537        -2.73029        -2.65180
C           6.03258        -1.78704        -2.69508
C           5.54255        -1.69055        -4.16055
C           6.31129        -0.35818        -2.11852
C           7.48594        -0.29987        -1.12421
C           5.08036         0.30776        -1.43081
C           3.68750        -0.07216        -1.94836
H           0.62224         0.76120         1.14952
H           0.41975        -0.87353         0.50637
H           0.46828         0.53686        -0.59201
H           2.78714        -0.45161         1.13867
H           2.81759         0.96226         0.11439
H           3.56008        -1.67729        -0.55267
H           1.90877        -1.59257        -2.83178
H           0.76497        -1.24554        -1.62217
H           0.60955        -3.45625        -1.31372
H           2.05987        -3.32712        -0.34799
H           2.74855        -3.40612        -3.21855
H           1.64003        -4.70960        -2.87202
H           3.12675        -5.81208        -1.44811
H           3.91570        -4.32867        -0.93553
H           4.48964        -4.42767        -3.69749
H           4.52187        -6.10391        -3.25392
H           6.43012        -5.91719        -2.04332
H           5.97573        -4.42269        -1.26265
H           6.64360        -4.14850        -4.19548
H           7.94502        -4.68507        -3.16793
H           8.06831        -2.29316        -3.24391
H           7.62319        -2.81737        -1.62204
H           5.25457        -2.24804        -2.07713
H           6.36141        -1.40355        -4.82399
H           4.75389        -0.96114        -4.34271
H           5.13856        -2.64120        -4.50942
H           6.59487         0.28541        -2.96276
H           7.28438        -0.91076        -0.23642
H           7.66578         0.72786        -0.78906
H           8.41953        -0.64740        -1.57682
H           5.19569         1.39606        -1.54293
H           5.13046         0.13039        -0.34693
H           3.76255        -0.65053        -2.86138
H           3.12840         0.82120        -2.23427

