%chk=CCCCqCrCqCCOrCCqCrO.chk
%NProcShared=20
# opt freq b3lyp/6-31g(2df,p)

Title Card Required 

0  1
C           1.01068        -0.06506         0.00176
C           2.52805        -0.20674        -0.03299
C           3.10838         1.06740        -0.61153
C           4.62813         1.22338        -0.63794
C           5.21980         0.09188        -1.48201
C           5.02745         2.65440        -1.14944
C           4.40147         3.78965        -0.29384
C           2.90253         4.08534        -0.28656
O           2.71165         5.33970         0.37118
C           6.58717         2.79525        -1.18157
C           7.20128         4.06519        -1.80740
C           6.98290         5.38106        -1.07352
O           8.62374         3.86366        -1.85074
H           0.55579        -0.95300         0.44282
H           0.61343         0.07288        -1.00977
H           0.70810         0.80641         0.59612
H           2.80828        -1.08554        -0.61411
H           2.90330        -0.32818         0.99012
H           2.74680         1.78054         0.10279
H           2.67913         1.29976        -1.59504
H           5.00303         1.11863         0.38900
H           4.88429         0.16868        -2.52131
H           4.91294        -0.88426        -1.09599
H           6.31084         0.08225        -1.46272
H           4.67434         2.76544        -2.18354
H           4.75716         4.71344        -0.71340
H           4.80146         3.75764         0.72673
H           2.27520         3.41806         0.29295
H           2.51491         4.14590        -1.30602
H           2.88699         5.17510         1.30996
H           7.00677         1.97019        -1.77189
H           6.99614         2.64300        -0.17330
H           6.86342         4.15767        -2.84335
H           7.08373         5.24315         0.00877
H           6.01560         5.83082        -1.29912
H           7.71041         6.13552        -1.38068
H           8.94826         3.87059        -0.94007

