%chk=CCCCCCCqCCCrNCCCC.chk
%NProcShared=20
# opt freq b3lyp/6-31g(2df,p)

Title Card Required 

0  1
C           0.85026        -0.04520         0.01166
C           2.36473        -0.09748         0.03444
C           2.96070         0.78240        -1.04528
C           4.49129         0.65685        -1.04445
C           5.02068         1.60033        -2.09599
C           6.52087         1.81671        -2.15550
C           6.93706         2.87302        -3.21923
C           6.40207         4.31415        -2.93852
C           4.89165         4.52907        -3.03616
C           4.45810         5.95640        -2.79817
N           8.41846         2.87593        -3.24712
C           8.97034         3.73108        -4.29183
C          10.49353         3.71345        -4.28286
C          11.01887         4.67952        -5.34547
C          12.53365         4.70707        -5.35899
H           0.44628        -0.71074         0.77879
H           0.46366        -0.36447        -0.96137
H           0.48822         0.96923         0.20866
H           2.70059        -1.12834        -0.11692
H           2.72913         0.23149         1.01413
H           2.66025         1.82723        -0.86780
H           2.56228         0.51355        -2.03193
H           4.81250        -0.36989        -1.23502
H           4.87239         0.96564        -0.06358
H           4.58995         2.51015        -1.72804
H           4.60777         1.38813        -3.08742
H           6.99521         0.85072        -2.37793
H           6.88269         2.12963        -1.16835
H           6.57276         2.53511        -4.19872
H           6.81435         5.00623        -3.67884
H           6.77033         4.64595        -1.96077
H           4.36131         4.05528        -2.22793
H           4.50520         4.13292        -3.97990
H           4.80404         6.28461        -1.81220
H           3.36245         5.98484        -2.78457
H           4.82804         6.63445        -3.56565
H           8.75621         1.91566        -3.39375
H           8.68444         4.77464        -4.12807
H           8.59671         3.42279        -5.27520
H          10.86705         2.70010        -4.47333
H          10.86252         4.02083        -3.29563
H          10.64131         5.69178        -5.15111
H          10.64726         4.38441        -6.33409
H          12.92317         5.03983        -4.39178
H          12.89314         5.39557        -6.12906
H          12.93567         3.71176        -5.57064

