%chk=CCCC1CCCqCCN2CCOC2CrCC1.chk
%NProcShared=20
# opt freq b3lyp/6-31g(2df,p)

Title Card Required 

0  1
C           0.94569        -0.04809        -0.00768
C           2.45705        -0.02684        -0.02810
C           3.07449        -1.35499         0.41363
C           4.61808        -1.33770         0.43458
C           5.21774        -0.39621        -0.62501
C           6.73104        -0.30282        -0.55793
C           7.18791         0.09495         0.85048
C           8.72058         0.15998         0.88291
C           9.23340         0.59849         2.25244
N          10.69495         0.61141         2.27285
C          11.18781         1.73192         3.06958
C          12.57583         1.26200         3.43412
O          12.45152        -0.14639         3.65651
C          11.25748        -0.55460         2.96905
C          11.60968        -1.68135         2.00881
C           6.63379        -0.89453         1.88717
C           5.11645        -0.97494         1.83684
H           0.56472         0.91184        -0.37012
H           0.56978        -0.21138         1.00505
H           0.56300        -0.83647        -0.66255
H           2.81705         0.78655         0.61353
H           2.76162         0.19852        -1.05629
H           2.74449        -2.14709        -0.27032
H           2.69045        -1.63110         1.40459
H           4.96586        -2.35777         0.22510
H           4.84228         0.62263        -0.48610
H           4.91381        -0.72387        -1.62689
H           7.06736         0.45116        -1.28285
H           7.17521        -1.25674        -0.85614
H           6.79234         1.09292         1.07673
H           9.06384         0.87875         0.12507
H           9.12909        -0.81358         0.60041
H           8.84714        -0.04323         3.04900
H           8.82553         1.59782         2.44917
H          10.59065         1.87346         3.97963
H          11.20067         2.66819         2.50357
H          12.94943         1.74526         4.34062
H          13.28852         1.41862         2.61806
H          10.58955        -0.94323         3.74847
H          12.35771        -1.35873         1.27666
H          10.73228        -2.05649         1.47516
H          12.05042        -2.52066         2.55798
H           6.90104        -0.59187         2.90510
H           7.06718        -1.88661         1.72182
H           4.69049        -0.01884         2.15891
H           4.78328        -1.73067         2.56097

