%chk=CCCC1CCCCCCCCC1CCOC.chk
%NProcShared=20
# opt freq b3lyp/6-31g(2df,p)

Title Card Required 

0  1
C           0.62738         0.15892         0.25944
C           2.13719         0.06102         0.30100
C           2.92823         1.36191         0.41437
C           4.48007         1.34814         0.13089
C           5.08607         0.20558        -0.75388
C           4.27152        -0.83116        -1.49704
C           3.57146        -0.35285        -2.80644
C           2.82551         1.01553        -2.96835
C           3.79326         2.18722        -3.07035
C           3.29321         3.63008        -2.97384
C           4.05127         4.50832        -1.94340
C           4.09270         3.95325        -0.50604
C           5.13628         2.81735        -0.16724
C           6.37582         2.88066        -1.13716
C           7.58518         2.01527        -0.81403
O           8.29966         1.82155        -2.04166
C           9.29991         0.82600        -1.89861
H           0.23710        -0.82659        -0.03585
H           0.31724         0.85440        -0.53685
H           0.18827         0.45365         1.20179
H           2.27556        -0.31569        -0.68273
H           2.48308        -0.68878         1.03168
H           2.75573         1.80964         1.39779
H           2.43606         2.01268        -0.30827
H           4.89706         1.11875         1.13011
H           5.77813        -0.35195        -0.10338
H           5.70851         0.60564        -1.54870
H           3.65967        -1.41906        -0.80918
H           4.97350        -1.62101        -1.80534
H           2.86388        -1.14411        -3.07638
H           4.35697        -0.36631        -3.56999
H           2.10548         1.18541        -2.17380
H           2.23298         0.98201        -3.89082
H           4.47044         2.07005        -3.91590
H           4.37946         2.03230        -2.19194
H           2.22268         3.66724        -2.75695
H           3.43212         4.10765        -3.95588
H           3.54446         5.48252        -1.90064
H           5.05849         4.74486        -2.30053
H           3.06735         3.70887        -0.24091
H           4.30262         4.78855         0.17689
H           5.55289         3.12301         0.80551
H           6.73345         3.91533        -1.20728
H           6.10285         2.65875        -2.17310
H           7.32930         1.03957        -0.40661
H           8.22718         2.51279        -0.08784
H           9.85511         0.74579        -2.83613
H           8.84278        -0.14500        -1.67990
H           9.98393         1.11272        -1.09682

