%chk=CCCCCCqCCrCCqCrCO.chk
%NProcShared=20
# opt freq b3lyp/6-31g(2df,p)

Title Card Required 

0  1
C           0.97732         0.02202        -0.08873
C           2.48323        -0.06497        -0.03929
C           2.92095        -0.86703         1.19051
C           4.42775        -0.88346         1.21276
C           5.07523        -1.47876         2.44799
C           6.61565        -1.30671         2.40026
C           7.03436         0.18280         2.31838
C           6.78476         1.02602         1.07470
C           7.23550        -2.01245         3.65165
C           8.78910        -2.09718         3.74171
C           9.52504        -0.75523         3.86331
C           9.19412        -2.93823         4.96702
O          10.61408        -3.08023         5.03877
H           0.65454         0.56028        -0.98304
H           0.60122         0.55165         0.79202
H           0.54409        -0.98156        -0.10404
H           2.90333         0.95075        -0.00651
H           2.86918        -0.53169        -0.95408
H           2.51806        -1.88232         1.17318
H           2.55554        -0.36563         2.09548
H           4.65242         0.16797         1.20623
H           4.84474        -1.32687         0.30097
H           4.80672        -2.54024         2.52222
H           4.67979        -0.98665         3.34548
H           6.99004        -1.83342         1.51201
H           8.10426         0.18791         2.29705
H           6.72168         0.71477         3.22314
H           6.93058         0.43635         0.16509
H           7.50260         1.85292         1.06045
H           5.81747         1.52854         1.05868
H           6.85452        -3.04655         3.66599
H           6.84034        -1.54548         4.56373
H           9.15646        -2.60190         2.83913
H           8.99763        -0.08116         4.54668
H           9.67807        -0.27922         2.89550
H          10.55043        -0.86517         4.22129
H           8.76701        -3.94287         4.92953
H           8.86081        -2.45257         5.88933
H          10.93213        -3.32532         4.16243

