%chk=CCCCCCC1CCCqCOrCCCN1.chk
%NProcShared=20
# opt freq b3lyp/6-31g(2df,p)

Title Card Required 

0  1
C           0.91872        -0.11110         0.04496
C           2.43219        -0.09906         0.04530
C           2.95496         1.32947         0.12107
C           4.46991         1.30773         0.09490
C           5.05523         2.70723         0.10566
C           6.57758         2.57343        -0.00764
C           7.27719         3.93917         0.04638
C           8.29633         3.85957         1.19203
C           8.90840         5.14519         1.71141
C           7.92384         6.29655         2.00343
C           6.47559         5.89944         2.37318
O           5.68949         7.02976         2.73545
C           7.99729         7.33379         0.86855
C           7.41388         6.89896        -0.48570
C           8.23847         5.82836        -1.24477
N           7.78749         4.42590        -1.22717
H           0.54945        -1.13803        -0.01435
H           0.53002         0.44752        -0.81220
H           0.53004         0.34627         0.95995
H           2.80442        -0.58333        -0.86574
H           2.80797        -0.68037         0.89597
H           2.60078         1.81583         1.03816
H           2.57796         1.91436        -0.72629
H           4.81722         0.78528        -0.80378
H           4.84527         0.74787         0.96142
H           4.77490         3.21230         1.04228
H           4.65425         3.31001        -0.71720
H           6.85601         2.01770        -0.90645
H           6.89016         1.95142         0.84332
H           6.46412         4.61196         0.22683
H           9.10363         3.17737         0.89381
H           7.82033         3.38892         2.06326
H           9.71573         5.46761         1.04304
H           9.44331         4.89654         2.63828
H           8.32414         6.80947         2.88995
H           6.44970         5.15113         3.17188
H           5.90116         5.48577         1.56411
H           5.95777         7.31118         3.60621
H           9.04542         7.63409         0.72302
H           7.48668         8.24619         1.20183
H           7.38377         7.79964        -1.11316
H           6.36291         6.61258        -0.37774
H           9.28624         5.87281        -0.93400
H           8.25455         6.12752        -2.29927
H           8.52444         3.81740        -1.57724

