%chk=CCCCCOOCCCCqCrCCCCOCCqCrC.chk
%NProcShared=20
# opt freq b3lyp/6-31g(2df,p)

Title Card Required 

0  1
C           1.01345         0.06182        -0.08958
C           2.53074         0.05101        -0.08468
C           3.05697        -1.24951         0.51005
C           4.57642        -1.25982         0.51462
C           5.10161        -2.55193         1.10638
O           6.51926        -2.47584         1.07306
O           6.96022        -3.71388         1.67441
C           8.37866        -3.64508         1.64251
C           8.87443        -4.94868         2.22469
C          10.39315        -5.01877         2.22089
C          10.89894        -6.35303         2.78795
C          10.37148        -7.54331         1.97368
C          12.43578        -6.32774         2.81896
C          12.99781        -7.59951         3.43513
C          14.51399        -7.60720         3.44435
C          14.98332        -8.92737         4.02634
O          16.40127        -8.95326         4.00852
C          16.88020       -10.16513         4.58172
C          18.40618       -10.14077         4.60019
C          18.92642        -8.95409         5.41324
C          18.92773       -11.45573         5.16944
H           0.64284         0.99746        -0.51749
H           0.62122        -0.03045         0.92811
H           0.62119        -0.76839        -0.68534
H           2.90125         0.90355         0.49606
H           2.90122         0.16935        -1.10941
H           2.68490        -2.10229        -0.07029
H           2.68500        -1.36814         1.53475
H           4.96747        -0.41186         1.08973
H           4.96760        -1.14062        -0.50289
H           4.77031        -3.41555         0.51998
H           4.76767        -2.67211         2.14246
H           8.71951        -2.79117         2.23430
H           8.71481        -3.53322         0.60656
H           8.43682        -5.75625         1.63036
H           8.48755        -5.07714         3.24233
H          10.79155        -4.18997         2.82079
H          10.76977        -4.87943         1.20046
H          10.53362        -6.45145         3.81830
H          10.71479        -7.48647         0.93594
H           9.28002        -7.58924         1.97475
H          10.69122        -8.50048         2.39196
H          12.77874        -5.46360         3.40329
H          12.82926        -6.19980         1.80336
H          12.67234        -8.47428         2.86444
H          12.61252        -7.71565         4.45527
H          14.90964        -6.76927         4.02954
H          14.90697        -7.48902         2.42728
H          14.59654        -9.76336         3.43070
H          14.62140        -9.03089         5.05624
H          16.52179       -11.01047         3.98175
H          16.48754       -10.26828         5.60086
H          18.76811       -10.02351         3.57092
H          18.57661        -9.00284         6.44999
H          18.58825        -8.00261         4.98872
H          20.02076        -8.94127         5.42221
H          18.58379       -11.60161         6.19934
H          20.02142       -11.47513         5.16822
H          18.57286       -12.30335         4.57331

