%chk=CCCC1NCCCCqCNqCrCrCCC1O.chk
%NProcShared=20
# opt freq b3lyp/6-31g(2df,p)

Title Card Required 

0  1
C           1.08005        -0.19155        -0.12556
C           2.58580        -0.34608        -0.36800
C           3.13601         1.04978        -0.64563
C           4.61347         1.34550        -0.39496
N           5.03492         2.56195        -1.13291
C           4.65777         3.91964        -0.72288
C           3.21680         4.22291        -0.31395
C           2.94192         4.77108         1.11637
C           3.25021         3.94683         2.44892
C           4.75182         3.97707         2.83648
N           5.43401         3.34768         4.00961
C           5.03341         2.00966         4.43113
C           6.89780         3.22154         3.79158
C           2.70091         2.53104         2.29818
C           3.69370         1.35754         2.05484
C           4.97311         1.30838         1.09742
O           6.19817         2.05749         1.27337
H           0.58931        -1.16284        -0.07914
H           0.62589         0.40470        -0.92463
H           0.87044         0.33416         0.81782
H           2.79112        -0.98161        -1.22717
H           3.03542        -0.85596         0.49302
H           2.57442         1.69377         0.00856
H           2.83463         1.36994        -1.64329
H           5.19904         0.52868        -0.83820
H           4.75447         2.42368        -2.10767
H           4.87100         4.52575        -1.61734
H           5.35859         4.35194        -0.00453
H           2.53643         3.41286        -0.53928
H           2.85547         4.97854        -1.02793
H           1.85543         4.96061         1.11744
H           3.40340         5.76203         1.19286
H           2.68446         4.46104         3.24287
H           5.11912         5.00362         2.74389
H           5.11299         3.53565         1.94991
H           3.95565         1.95152         4.59805
H           5.48107         1.68375         5.37462
H           5.42185         1.24904         3.73876
H           7.36367         4.18042         3.57270
H           7.20366         2.51848         3.01278
H           7.37080         2.79800         4.68511
H           1.88802         2.53768         1.55962
H           2.12578         2.28651         3.20657
H           3.04844         0.55509         1.72997
H           3.86818         0.84462         2.99137
H           5.38705         0.32515         1.32492
H           6.20525         2.85614         0.78927

