%chk=CCCCCNCC1CCCCqCrC1.chk
%NProcShared=20
# opt freq b3lyp/6-31g(2df,p)

Title Card Required 

0  1
C           1.03378        -0.00741         0.09652
C           2.55263        -0.00089         0.09090
C           3.08702         1.00493        -0.92256
C           4.61397         1.02284        -0.93449
C           5.11475         2.04312        -1.95263
N           6.57675         2.05999        -1.96744
C           7.05055         3.01457        -2.97241
C           8.58216         3.00420        -3.12928
C           8.98573         4.06563        -4.16748
C          10.48868         4.07403        -4.42308
C          10.98699         2.69790        -4.85181
C          10.61208         1.62532        -3.82487
C          11.05174         0.24185        -4.29736
C           9.10401         1.62254        -3.55382
H           0.65996        -0.73050         0.82702
H           0.64142        -0.28096        -0.88825
H           0.64080         0.97995         0.35968
H           2.92030        -1.00493        -0.15023
H           2.91937         0.24911         1.09307
H           2.71035         2.00687        -0.68242
H           2.71494         0.75309        -1.92357
H           4.99187         0.02312        -1.18342
H           4.99046         1.27361         0.06499
H           4.73223         3.03665        -1.69429
H           4.73202         1.77719        -2.94582
H           6.91155         1.12499        -2.18634
H           6.73147         4.02272        -2.68242
H           6.59291         2.78831        -3.94383
H           9.03861         3.26995        -2.16556
H           8.66909         5.05978        -3.83051
H           8.46429         3.87170        -5.11418
H          11.01371         4.38912        -3.51328
H          10.72462         4.80924        -5.20068
H          12.07526         2.72931        -4.98009
H          10.55826         2.44613        -5.83041
H          11.13301         1.84795        -2.88403
H          10.55080        -0.03336        -5.23196
H          10.80493        -0.51761        -3.54761
H          12.13217         0.21167        -4.46655
H           8.89709         0.88281        -2.77188
H           8.56679         1.29263        -4.45310

