%chk=CCCCCqCrOCCCqCCdOrCqdOrOCC.chk
%NProcShared=20
# opt freq b3lyp/6-31g(2df,p)

Title Card Required 

0  1
C           1.02629         0.04892         0.09102
C           2.54302         0.03383         0.10132
C           3.05845         0.26464        -1.30452
C           4.57910         0.28466        -1.34355
C           5.08609         0.53422        -2.75862
C           4.57210         1.88881        -3.28866
O           6.52702         0.45088        -2.69950
C           7.07266         0.68568        -3.98080
C           8.58082         0.70801        -4.06251
C           9.08075         1.00530        -5.50819
C           8.56941         2.34435        -6.08735
C           7.07700         2.43200        -6.33775
O           6.47767         3.49484        -6.48276
C          10.61126         0.99262        -5.48122
O          11.27473         0.80682        -4.46471
O          11.16027         1.17705        -6.71703
C          12.60235         1.17442        -6.70723
C          13.13301         1.40606        -8.11093
H           0.63983        -0.11189         1.09928
H           0.63724        -0.73731        -0.56420
H           0.64990         1.01069        -0.27520
H           2.91161        -0.92321         0.48340
H           2.91500         0.82515         0.76248
H           2.65011         1.22009        -1.64758
H           2.68430        -0.50899        -1.98667
H           4.98259        -0.66682        -0.97448
H           4.97357         1.05763        -0.67136
H           4.72835        -0.26996        -3.41540
H           4.95450         2.71102        -2.67469
H           3.48228         1.94092        -3.31894
H           4.87414         2.07992        -4.32111
H           6.77839         1.69785        -4.21617
H           6.65841        -0.03770        -4.69225
H           8.98140        -0.24688        -3.70120
H           8.95780         1.47311        -3.37165
H           8.75506         0.17873        -6.15474
H           9.02143         2.52152        -7.06862
H           8.85457         3.16990        -5.42599
H           6.52097         1.48146        -6.39992
H          12.96690         0.20751        -6.34022
H          12.96769         1.97275        -6.04992
H          12.78342         0.62533        -8.79346
H          14.22852         1.40733        -8.11640
H          12.78296         2.36449        -8.50666

