%chk=CCCCNCqCrCC1CCCCCCC1C.chk
%NProcShared=20
# opt freq b3lyp/6-31g(2df,p)

Title Card Required 

0  1
C           0.85090        -0.02815         0.05402
C           2.36213        -0.03837         0.02348
C           2.86981        -1.08668        -0.96187
C           4.38387        -1.07334        -0.93220
N           4.91952        -2.12689        -1.78769
C           6.38951        -2.15311        -1.74234
C           6.90847        -2.31206        -0.31215
C           6.86631        -3.28154        -2.70174
C           8.40673        -3.33505        -2.83595
C           9.08440        -4.07459        -1.65287
C          10.49761        -3.60346        -1.27845
C          10.80667        -2.12136        -1.52068
C          11.56907        -1.85957        -2.82551
C          10.80236        -2.09354        -4.13336
C          10.44194        -3.56468        -4.40165
C           8.94946        -3.92086        -4.17253
C           8.16457        -3.49652        -5.41788
H           0.49390         0.73158         0.75375
H           0.46762        -1.00226         0.37321
H           0.45027         0.19431        -0.93908
H           2.74594        -0.25130         1.02955
H           2.73849         0.95206        -0.25875
H           2.50150        -0.88224        -1.97262
H           2.50464        -2.07896        -0.66702
H           4.65913        -1.24077         0.10933
H           4.76880        -0.09387        -1.24047
H           4.61443        -1.96852        -2.74466
H           6.75828        -1.19600        -2.13751
H           6.65165        -3.30065         0.08375
H           6.53134        -1.56587         0.38845
H           7.98634        -2.15053        -0.27280
H           6.42229        -3.03452        -3.67143
H           6.46411        -4.25909        -2.41342
H           8.66638        -2.27947        -2.81552
H           9.10207        -5.15480        -1.84558
H           8.49103        -4.02194        -0.74231
H          11.24072        -4.23561        -1.77313
H          10.63819        -3.81162        -0.20953
H          11.44274        -1.77333        -0.69682
H           9.91421        -1.48950        -1.45788
H          12.48345        -2.46503        -2.83248
H          11.89859        -0.81276        -2.81470
H          11.44433        -1.75058        -4.95400
H           9.92525        -1.43796        -4.17852
H          11.08426        -4.23482        -3.82386
H          10.69892        -3.79480        -5.44355
H           8.87386        -5.01624        -4.12279
H           8.16735        -2.40956        -5.53902
H           7.13074        -3.84957        -5.38878
H           8.60642        -3.94237        -6.31582

