%chk=CCCCCCCCCC1CC1CCC.chk
%NProcShared=20
# opt freq b3lyp/6-31g(2df,p)

Title Card Required 

0  1
C           0.95927        -0.11547        -0.01558
C           2.47616        -0.10784        -0.02073
C           3.00307         1.07764        -0.81840
C           4.52453         1.08763        -0.82564
C           5.03882         2.27470        -1.62566
C           6.55823         2.28423        -1.63475
C           7.07122         3.47098        -2.43529
C           8.59049         3.47917        -2.43460
C           9.12334         4.68783        -3.19239
C          10.61971         4.69499        -3.20431
C          11.36913         5.91714        -2.74835
C          11.39872         4.66869        -1.90930
C          12.64200         3.83313        -1.80218
C          12.40737         2.61667        -0.90338
C          13.66290         1.77520        -0.75013
H           0.58649        -0.96821         0.55810
H           0.56838        -0.18864        -1.03550
H           0.56839         0.80169         0.43655
H           2.84637        -1.04382        -0.45508
H           2.84643        -0.05816         1.00991
H           2.63080         2.01397        -0.38458
H           2.63044         1.02870        -1.84904
H           4.90253         0.15501        -1.26212
H           4.90292         1.14151         0.20256
H           4.66431         3.20903        -1.18947
H           4.66230         2.22344        -2.65462
H           6.93561         1.35059        -2.06956
H           6.93521         2.33742        -0.60564
H           6.69288         4.40319        -1.99761
H           6.69777         3.41926        -3.46485
H           8.97519         2.55483        -2.88288
H           8.94646         3.49716        -1.39748
H           8.73264         5.60784        -2.74058
H           8.75837         4.66659        -4.22629
H          11.01368         4.13902        -4.05014
H          10.79938         6.75799        -2.36267
H          12.25789         6.20612        -3.29589
H          10.86598         4.72629        -0.96426
H          13.44618         4.44803        -1.38303
H          12.97464         3.50040        -2.79377
H          11.59886         1.99838        -1.31179
H          12.07886         2.94837         0.08935
H          14.00060         1.39309        -1.71835
H          13.46794         0.91974        -0.09542
H          14.47452         2.36151        -0.30762

