%chk=CCCCCqCC1NCC1CCrNCC.chk
%NProcShared=20
# opt freq b3lyp/6-31g(2df,p)

Title Card Required 

0  1
C           1.14380         0.00432        -0.74644
C           2.69670        -0.13771        -0.94172
C           3.44659        -1.29360        -0.19886
C           4.91127        -1.25681         0.33465
C           5.17275        -2.23939         1.57842
C           4.47646        -3.61772         1.43512
C           2.94797        -3.49446         1.62516
N           2.36189        -4.52216         2.53458
C           1.27932        -3.55740         2.84940
C           2.27596        -2.38822         2.62310
C           1.57118        -1.05789         2.21793
C           2.44011         0.25776         2.21768
N           6.63516        -2.30250         1.77077
C           7.12453        -3.24630         2.76978
C           8.64529        -3.20224         2.77828
H           0.74583         0.78009        -1.41206
H           0.81689         0.36517         0.23519
H           0.59469        -0.92247        -0.95146
H           3.13267         0.83311        -0.68589
H           2.83458        -0.30542        -2.00405
H           3.24432        -2.24133        -0.72051
H           2.96712        -1.39214         0.69587
H           5.16913        -0.24887         0.69706
H           5.60288        -1.49535        -0.47217
H           4.78463        -1.77350         2.49177
H           4.85692        -4.35367         2.15275
H           4.71898        -4.02813         0.44484
H           2.47452        -3.62572         0.63712
H           2.95194        -4.75955         3.33955
H           0.87260        -3.62365         3.85827
H           0.44650        -3.60976         2.13076
H           2.88546        -2.19455         3.51259
H           0.71496        -0.85430         2.85760
H           1.11281        -1.27022         1.24716
H           2.98191         0.40542         3.14970
H           1.81602         1.13929         2.01137
H           3.22420         0.36915         1.46570
H           6.95890        -1.36117         2.04035
H           6.84609        -4.27620         2.51737
H           6.73767        -3.01902         3.77077
H           9.03990        -3.41269         1.77752
H           9.04641        -3.95712         3.46063
H           9.01561        -2.22061         3.09415

