%chk=CCCCCNOCNOCCC1CCCCC1.chk
%NProcShared=20
# opt freq b3lyp/6-31g(2df,p)

Title Card Required 

0  1
C           1.02122        -0.09421         0.00626
C           2.53733        -0.08594         0.01600
C           3.06486         0.88315         1.06688
C           4.58485         0.87896         1.07071
C           5.12625         1.83549         2.11878
N           6.57865         1.77008         2.03821
O           7.02088         2.77104         2.99156
C           8.44287         2.75296         3.04039
N           8.88343         3.70342         4.02929
O          10.33476         3.59664         4.02544
C          10.78278         4.52544         4.99614
C          12.29899         4.58309         5.07519
C          12.76316         5.59278         6.14549
C          12.61090         7.03521         5.62896
C          12.88800         8.07559         6.70880
C          12.04643         7.82586         7.95516
C          12.31420         6.43640         8.52049
C          12.00894         5.38104         7.47486
H           0.65154        -0.79288        -0.74910
H           0.62961         0.90166        -0.22393
H           0.62924        -0.40115         0.98107
H           2.90904         0.19976        -0.97523
H           2.90807        -1.09701         0.22208
H           2.69266         0.59962         2.05881
H           2.69869         1.89617         0.85947
H           4.95554         1.16717         0.07787
H           4.95324        -0.13566         1.27030
H           4.78221         1.54634         3.11943
H           4.77698         2.85696         1.92005
H           6.85621         2.19352         1.14800
H           8.83483         3.03517         2.05538
H           8.79082         1.74408         3.29877
H           8.61453         3.30571         4.93569
H          10.37509         4.17193         5.94763
H          10.36690         5.51424         4.77100
H          12.71728         4.83508         4.09187
H          12.68329         3.58235         5.31009
H          13.83239         5.41897         6.32737
H          11.59891         7.20352         5.24446
H          13.29125         7.19695         4.78338
H          12.67114         9.07377         6.31277
H          13.95126         8.05457         6.97332
H          10.98178         7.92220         7.70169
H          12.26443         8.58198         8.71502
H          11.67222         6.26555         9.39273
H          13.35308         6.34659         8.85239
H          10.92690         5.44392         7.32086
H          12.21763         4.37823         7.86565

