%chk=CCCCCCCCC1OC1OCqOrCC.chk
%NProcShared=20
# opt freq b3lyp/6-31g(2df,p)

Title Card Required 

0  1
C           0.95639        -0.08192         0.04180
C           2.47243        -0.08628         0.03585
C           3.00024        -0.94996        -1.10093
C           4.52071        -0.95085        -1.10260
C           5.04451        -1.81329        -2.23591
C           6.56687        -1.81468        -2.23099
C           7.06224        -2.69560        -3.35850
C           8.58270        -2.76482        -3.41747
C           9.07554        -3.52115        -4.60951
O           9.14520        -4.95142        -4.49328
C           8.15288        -4.44087        -5.38957
O           8.41145        -4.47255        -6.80529
C           7.38379        -3.77160        -7.50203
O           7.39392        -2.40450        -7.11521
C           7.56892        -3.90707        -9.00767
C           6.47791        -3.16072        -9.76282
H           0.58321         0.53978         0.85982
H           0.56669        -1.09639         0.17320
H           0.56657         0.31620        -0.90045
H           2.84308        -0.46618         0.99509
H           2.84300         0.93969        -0.07318
H           2.62956        -0.57200        -2.06187
H           2.62986        -1.97713        -0.99374
H           4.89589        -1.33325        -0.14568
H           4.89640         0.07320        -1.21530
H           4.67329        -1.43579        -3.19748
H           4.66866        -2.83915        -2.12922
H           6.93957        -2.19272        -1.27207
H           6.94443        -0.79331        -2.35591
H           6.67136        -2.31368        -4.31102
H           6.65037        -3.70198        -3.21618
H           8.98431        -3.19361        -2.49274
H           8.97241        -1.73989        -3.48308
H           9.92296        -3.05323        -5.08620
H           7.12801        -4.58825        -5.07880
H           6.41145        -4.19726        -7.22512
H           8.24919        -2.05938        -7.41982
H           7.55999        -4.96755        -9.28586
H           8.54876        -3.51398        -9.30218
H           5.48884        -3.55503        -9.50606
H           6.61825        -3.26353       -10.84213
H           6.48875        -2.09269        -9.52148

