%chk=CCCCqCOCrCqCCrNNqCCOrOO.chk
%NProcShared=20
# opt freq b3lyp/6-31g(2df,p)

Title Card Required 

0  1
C           0.81264        -0.00872         0.03483
C           2.32237        -0.01480         0.22150
C           2.96721        -0.78993        -0.91007
C           4.51345        -0.77361        -1.02402
C           5.11954        -1.50764         0.16482
O           4.80908        -0.72950         1.31590
C           5.10594        -1.39885         2.52036
C           4.92620        -1.33639        -2.42527
C           4.32276        -0.32173        -3.46909
C           2.89203        -0.65476        -3.95111
N           6.40415        -1.45436        -2.59649
N           6.85747        -2.44052        -3.63477
C           6.48851        -2.01715        -5.00102
C           5.08279        -2.47371        -5.41362
O           4.57682        -1.67048        -6.48056
O           8.32139        -2.37166        -3.65712
O           8.91570        -3.37518        -4.51971
H           0.34412         0.55906         0.84061
H           0.42245        -1.03180         0.05048
H           0.52813         0.44659        -0.92076
H           2.54153        -0.45361         1.19283
H           2.69729         1.01505         0.19850
H           2.56956        -0.26146        -1.75675
H           2.58797        -1.81852        -0.97187
H           4.84018         0.27452        -0.96847
H           6.20750        -1.57174         0.10783
H           4.70082        -2.51821         0.24195
H           4.69134        -0.80561         3.33843
H           6.18873        -1.46888         2.63162
H           4.64491        -2.39021         2.53533
H           4.49685        -2.34388        -2.50473
H           4.94919        -0.25283        -4.34690
H           4.37795         0.70851        -3.09758
H           2.61304        -1.69158        -3.72379
H           2.79388        -0.50473        -5.02730
H           2.12912        -0.00095        -3.52135
H           6.79990        -1.82747        -1.72911
H           7.14364        -2.45979        -5.75892
H           6.65692        -0.93874        -5.11654
H           4.37781        -2.43741        -4.59458
H           5.04434        -3.52274        -5.70819
H           4.71550        -0.73427        -6.24873
H           9.78926        -2.98948        -4.52991

