%chk=CCCOCC1dCCdCqCCrCdCO1.chk
%NProcShared=20
# opt freq b3lyp/6-31g(2df,p)

Title Card Required 

0  1
C           0.94005         0.07092         0.00207
C           2.45504         0.08691        -0.00712
C           2.95971         1.30134        -0.76064
O           4.37954         1.28394        -0.74276
C           4.88475         2.38994        -1.47899
C           6.38504         2.39379        -1.47402
C           6.98260         3.59269        -1.45896
C           8.36221         3.92192        -1.47092
C           9.43942         3.12281        -1.47203
C          10.84124         3.70906        -1.46791
C          10.87574         5.23638        -1.46568
C           9.38163         1.67685        -1.46894
C           8.30480         0.87886        -1.48074
O           6.96718         1.14956        -1.50621
H           0.56985        -0.80278         0.54375
H           0.54815         0.03658        -1.01982
H           0.54764         0.97091         0.48689
H           2.84489        -0.82611        -0.47262
H           2.84441         0.09770         1.01778
H           2.60129         2.22108        -0.28307
H           2.60557         1.27850        -1.79818
H           4.50002         3.31051        -1.01843
H           4.53152         2.34667        -2.51562
H           6.34917         4.47973        -1.45160
H           8.48306         5.00048        -1.47515
H          11.38554         3.34953        -2.35037
H          11.37930         3.34863        -0.58172
H          10.37413         5.63254        -2.35757
H          11.89714         5.61698        -1.46124
H          10.36762         5.63050        -0.57646
H          10.34870         1.17293        -1.45884
H           8.42284        -0.20016        -1.47466

