%chk=CCCOCqCCCqCrCrCqCCrCCCO.chk
%NProcShared=20
# opt freq b3lyp/6-31g(2df,p)

Title Card Required 

0  1
C           1.09284         0.15428         0.07314
C           2.62284         0.25376         0.12816
C           3.13121        -1.10728         0.53998
O           4.50777        -1.36435         0.34775
C           4.94110        -2.65344         0.83725
C           4.45396        -3.79186        -0.09530
C           2.94547        -4.01532        -0.11569
C           2.43788        -5.09611        -1.04662
C           2.93041        -6.45284        -0.60324
C           0.90598        -4.98687        -1.05887
C           6.50707        -2.62552         0.92323
C           7.01752        -1.50840         1.87276
C           6.62816        -0.08803         1.49549
C           7.08878        -3.99616         1.37121
C           8.61502        -4.06181         1.37603
C           9.10668        -5.43958         1.79696
O          10.52288        -5.45931         1.80719
H           0.64563         1.08776        -0.26755
H           0.68318        -0.10721         1.05549
H           0.77254        -0.63738        -0.62129
H           2.96268         1.03215         0.81152
H           3.00850         0.48743        -0.87156
H           2.63365        -1.65637        -0.22092
H           2.78343        -1.41686         1.53196
H           4.55298        -2.81040         1.85373
H           4.88845        -4.73449         0.23265
H           4.80475        -3.59148        -1.11402
H           2.44416        -3.19053        -0.57710
H           2.56123        -4.12402         0.90625
H           2.80333        -4.87983        -2.05962
H           2.62447        -6.65382         0.42781
H           4.02315        -6.49819        -0.64732
H           2.53935        -7.23203        -1.25794
H           0.49333        -5.13634        -0.05467
H           0.46130        -5.71052        -1.74243
H           0.58798        -3.98555        -1.38549
H           6.89216        -2.40551        -0.08218
H           8.11143        -1.51574         1.88830
H           6.68530        -1.71867         2.89641
H           6.87977         0.11700         0.45001
H           7.15952         0.62864         2.12663
H           5.56680         0.10492         1.65919
H           6.76569        -4.79014         0.69184
H           6.70019        -4.25260         2.36514
H           9.05006        -3.32789         2.05964
H           8.99985        -3.82130         0.37670
H           8.74747        -6.22027         1.11927
H           8.75933        -5.67723         2.80975
H          10.82309        -5.21132         0.90383

