%chk=CCCqCCrCqdCC1CCCqOCrC1rOO.chk
%NProcShared=20
# opt freq b3lyp/6-31g(2df,p)

Title Card Required 

0  1
C           0.56604         0.19197        -0.07935
C           2.00347         0.62286        -0.28303
C           2.88528         1.69701        -0.82631
C           2.50748         2.97910        -0.09110
C           0.99117         3.14029        -0.03946
C           4.43216         1.34448        -0.68376
C           5.06926         0.26091        -0.07527
C           4.61040        -1.03111         0.67722
C           3.18752        -1.42620         0.47564
C           2.76657        -2.81753         0.67164
C           4.09146        -3.46413         0.46873
O           4.29958        -4.10031         1.71229
C           5.39133        -4.97435         1.62310
C           5.17829        -2.35764         0.16457
O           5.14070         2.35714        -1.35172
O           6.57382         2.17908        -1.23275
H           0.57183        -0.86541         0.24095
H           0.01235         0.23004        -1.01151
H           0.04623         0.68270         0.74085
H           2.23590        -0.09369        -1.05268
H           2.38362         0.65265         0.74151
H           2.68857         1.78458        -1.90493
H           2.96713         3.83747        -0.58101
H           2.89063         2.92776         0.93686
H           0.52670         2.84900        -0.99085
H           0.69095         4.14701         0.22939
H           0.57831         2.51478         0.75456
H           6.15943         0.28937        -0.09187
H           4.82075        -0.89730         1.74689
H           3.08433        -1.38396        -0.60761
H           2.57258        -0.93065         1.20859
H           1.99831        -3.05003        -0.08295
H           2.28532        -2.93318         1.65087
H           3.99640        -4.18128        -0.35471
H           5.46034        -5.50452         2.56781
H           6.30153        -4.39800         1.46659
H           5.23110        -5.67079         0.79715
H           5.32801        -2.29710        -0.91995
H           6.14173        -2.54249         0.63793
H           6.81160         2.98702        -1.71835

