%chk=CCCqCrNOCqOrCCCqCrCCtN.chk
%NProcShared=20
# opt freq b3lyp/6-31g(2df,p)

Title Card Required 

0  1
C           0.88977        -0.01044         0.01275
C           2.40822        -0.04249        -0.02240
C           2.93823        -1.34524        -0.63309
C           2.44976        -1.52467        -2.07207
N           4.39782        -1.26044        -0.61111
O           4.87590        -2.55067        -1.08737
C           6.30181        -2.51413        -1.09378
O           6.77860        -2.36625         0.23919
C           6.79678        -3.81297        -1.69627
C           8.32300        -3.85989        -1.73747
C           8.83737        -5.16927        -2.35356
C           8.31814        -5.32315        -3.78769
C          10.37568        -5.19166        -2.33148
C          10.90136        -6.45243        -2.87108
N          11.28072        -7.45346        -3.32747
H           0.53739         0.92101         0.46047
H           0.50362        -0.85348         0.59380
H           0.46444        -0.06239        -0.99301
H           2.78951         0.07336         1.00113
H           2.77573         0.81850        -0.59601
H           2.60495        -2.19462        -0.02170
H           2.77989        -0.68933        -2.69948
H           1.35918        -1.57576        -2.12111
H           2.81780        -2.45568        -2.51307
H           4.73370        -1.26102         0.35660
H           6.64736        -1.66824        -1.70163
H           6.45417        -3.15322         0.70639
H           6.36429        -3.89496        -2.69888
H           6.41717        -4.66927        -1.12430
H           8.72003        -3.75342        -0.71979
H           8.69691        -3.00250        -2.31232
H           8.46027        -6.00632        -1.74947
H           8.65253        -4.48307        -4.40570
H           7.22713        -5.36376        -3.82475
H           8.66710        -6.25235        -4.24285
H          10.73523        -5.06100        -1.30388
H          10.76468        -4.34873        -2.91562

