%chk=CCCqCrqCrC1CdCqCrC1.chk
%NProcShared=20
# opt freq b3lyp/6-31g(2df,p)

Title Card Required 

0  1
C           0.92102        -0.06336        -0.02509
C           2.44179         0.03254        -0.10060
C           2.95036         1.19944        -0.99355
C           2.44791         1.01663        -2.43847
C           2.41421         2.53215        -0.42944
C           4.51053         1.20639        -0.94413
C           5.26838         0.76592        -2.19680
C           5.81958         1.98057        -2.40539
C           6.64468         2.59681        -3.50174
C           5.24296         2.56653        -1.14331
H           0.61600        -0.89036         0.61931
H           0.48406        -0.23082        -1.01272
H           0.48200         0.84644         0.39314
H           2.84416        -0.92142        -0.46557
H           2.83049         0.15255         0.92032
H           1.35803         1.06219        -2.50623
H           2.75786         0.04456        -2.84241
H           2.83976         1.79645        -3.09952
H           1.32361         2.56313        -0.38899
H           2.68545         3.38345        -1.05861
H           2.80519         2.71314         0.57856
H           4.87158         0.70302        -0.03308
H           5.26137        -0.15257        -2.77528
H           6.85238         1.90755        -4.31925
H           7.56674         2.99630        -3.06740
H           6.13274         3.49755        -3.86189
H           4.63621         3.45674        -1.32031
H           5.94560         2.81497        -0.34095

