%chk=CCCSqCrqOOrOCCqCCrOOC.chk
%NProcShared=20
# opt freq b3lyp/6-31g(2df,p)

Title Card Required 

0  1
C           1.01416        -0.00461         0.07500
C           2.52852         0.01496         0.09789
C           3.13547        -1.19170         0.80700
S           4.92092        -1.12540         0.71943
C           5.56786        -1.12533        -0.93637
O           5.43395         0.18950         1.50166
O           5.21202         1.41336         0.76914
O           5.50825        -2.43889         1.46268
C           6.92404        -2.59837         1.53206
C           7.36562        -3.91213         2.18679
C           6.84606        -5.15110         1.43837
C           5.33215        -5.28574         1.42228
O           8.80712        -3.89235         2.14826
O           9.26958        -5.03879         2.92064
C          10.68756        -5.00584         2.82055
H           0.64288         0.89766        -0.42337
H           0.61123        -0.02029         1.09143
H           0.63743        -0.87419        -0.47038
H           2.84404         0.93521         0.59705
H           2.89755         0.07089        -0.93305
H           2.83418        -2.12035         0.30891
H           2.84355        -1.24265         1.85857
H           5.18990        -0.24590        -1.45733
H           5.20515        -2.03166        -1.42895
H           6.65546        -1.10914        -0.91378
H           5.37531         2.00425         1.53231
H           7.35533        -1.74981         2.07697
H           7.34212        -2.57070         0.52045
H           7.03467        -3.93305         3.23245
H           7.25985        -6.05372         1.90389
H           7.23343        -5.14920         0.41213
H           4.92599        -5.23069         2.43717
H           5.04016        -6.24236         0.98182
H           4.85822        -4.51500         0.81112
H          11.09224        -5.90394         3.29398
H          11.07163        -4.12426         3.34107
H          11.00177        -4.98847         1.77183

