%chk=CCdCNSCCSqCOCCCrd[SH]PdO.chk
%NProcShared=20
# opt freq b3lyp/6-31g(2df,p)

Title Card Required 

0  1
C           1.12782         0.05990         0.11170
C           2.63040         0.05996         0.12074
C           3.37918        -0.03148         1.24100
N           4.75570        -0.03439         1.34654
S           5.47830        -0.19717         2.84793
C           7.27234        -0.12731         2.41532
C           8.16318        -0.19245         3.68165
S           9.97397        -0.36117         3.30590
C          10.28984         1.29901         2.63153
O           9.64446         1.41785         1.37287
C           9.98204         2.65064         0.73993
C           9.22148         2.76495        -0.57448
C           9.56811         4.06032        -1.28837
S          10.78630        -0.21397         4.98639
P          12.76333        -0.44408         4.50797
O          13.29014        -0.41405         5.99710
H           0.75641         0.14504        -0.91751
H           0.72143         0.90941         0.67054
H           0.72181        -0.86982         0.52366
H           3.10847         0.14079        -0.84875
H           2.86154        -0.11175         2.19531
H           5.27569         0.02227         0.47309
H           7.43729         0.80916         1.88109
H           7.51121        -0.95875         1.74395
H           7.91220        -1.09889         4.24876
H           8.00237         0.67177         4.33562
H          11.37091         1.38372         2.47197
H           9.96022         2.08086         3.32404
H          11.06129         2.67565         0.54981
H           9.71650         3.48554         1.39870
H           8.14225         2.71703        -0.38567
H           9.45527         1.90774        -1.21713
H           9.30959         4.92669        -0.67071
H           9.02114         4.13932        -2.23241
H          10.63938         4.10775        -1.51013
H          10.57840        -1.40541         5.50494

