%chk=CCdCC1CCdC1C1CdCCdC1.chk
%NProcShared=20
# opt freq b3lyp/6-31g(2df,p)

Title Card Required 

0  1
C           0.96913         0.01917         0.08686
C           2.45779        -0.00619         0.07114
C           3.17802         0.38197        -0.99209
C           4.66713         0.34169        -1.00512
C           5.41410         0.52879         0.34322
C           5.91815         1.83240        -0.21461
C           5.31954         1.66578        -1.41397
C           5.33523         2.49215        -2.69687
C           5.74456         1.65638        -3.88699
C           4.77386         1.63835        -4.81483
C           3.65615         2.40849        -4.34060
C           3.94607         2.90051        -3.12560
H           0.60813        -0.29890         1.06990
H           0.56862        -0.66950        -0.66185
H           0.59345         1.02958        -0.09976
H           2.93569        -0.35579         0.98047
H           2.67667         0.70082        -1.90162
H           5.01615        -0.53158        -1.57269
H           6.17146        -0.24018         0.53605
H           4.81289         0.62533         1.25297
H           6.55880         2.59730         0.21366
H           5.97915         3.37155        -2.59170
H           6.70016         1.16225        -3.97668
H           4.80586         1.12976        -5.76620
H           2.73346         2.54343        -4.88238
H           3.28549         3.50528        -2.52368

