%chk=CCNc1cccccccc2cccc-2n1.chk
%NProcShared=20
# opt freq b3lyp/6-31g(2df,p)

Title Card Required 

0  1
C           1.13030         0.21013        -0.04116
C           3.15932         0.45726        -0.05879
N           4.80737         1.81967        -0.15686
C           6.93222         2.45820        -0.19466
C           5.15671         3.25102        -0.26628
C           6.30364         3.74870        -0.31278
C           6.78482         4.97509        -0.39777
C           8.02191         5.36294        -0.42875
C           8.46328         6.56707        -0.51437
C           9.55765         7.09459        -0.55556
C          10.43002         7.97974        -0.62480
C          11.24494         6.87649        -0.54810
C          12.13013         8.63337        -0.66499
C          13.17789         7.91783        -0.60621
C          12.06282         6.10403        -0.46788
C          10.55004         4.83975        -0.37051
N           8.71354         3.42399        -0.26460
H           0.67236        -0.89170         0.04108
H           0.63378         0.55157        -0.96118
H           0.63373         0.68453         0.81767
H           2.97260        -0.40619        -0.88362
H           2.97246        -0.27427         0.88356
H           3.32402         2.21208        -0.19007
H           4.28845         3.95805        -0.32029
H           7.28904         3.79356        -0.33236
H           6.03835         5.62150        -0.44518
H           8.92230         4.90855        -0.40272
H           7.83931         7.27530        -0.56899
H           9.90115         6.21926        -0.50548
H           9.93355         8.88511        -0.68889
H          12.04322        10.08449        -0.78472
H          14.19905         9.17796        -0.69463
H          13.53570         6.66100        -0.50878

