%chk=CCNCqdOrNqCrNONNOO.chk
%NProcShared=20
# opt freq b3lyp/6-31g(2df,p)

Title Card Required 

0  1
C           0.96805         0.01094         0.07616
C           2.48742         0.00364         0.08073
N           3.01722        -1.27579         0.50411
C           4.36890        -1.51521         0.57337
O           5.18668        -0.62530         0.31692
N           4.74725        -2.79899         0.97412
C           3.87093        -3.91621         1.32145
N           6.15642        -3.07526         0.99185
O           6.46194        -4.31782         1.66441
N           7.86090        -4.64311         1.54286
N           8.07417        -5.97618         2.00506
O           9.47708        -6.30660         1.99599
O           9.64789        -7.64439         2.50464
H           0.59021         0.98900        -0.23727
H           0.56972        -0.20631         1.07312
H           0.57157        -0.74448        -0.61112
H           2.86745         0.77083         0.76311
H           2.87016         0.22104        -0.92220
H           2.35789        -2.00697         0.69458
H           2.81332        -3.68052         1.24697
H           4.07367        -4.21232         2.35654
H           4.08570        -4.75189         0.64841
H           6.56810        -2.40436         1.64449
H           8.24599        -3.99065         2.22553
H           7.72637        -6.64321         1.31283
H          10.61758        -7.60681         2.53202

