%chk=CCOCqCOrCCCqCrO.chk
%NProcShared=20
# opt freq b3lyp/6-31g(2df,p)

Title Card Required 

0  1
C           0.91984         0.17337        -0.04912
C           2.42841         0.10026         0.01737
O           3.01870         0.43247        -1.23771
C           4.46224         0.40869        -1.20991
C           5.02880        -1.00173        -0.92232
O           4.79790        -1.45192         0.41188
C           4.93868         0.90993        -2.58517
C           6.46446         0.98876        -2.69534
C           6.96057         1.45927        -4.05931
C           6.50376         2.86700        -4.39651
O           8.38893         1.42315        -4.05069
H           0.49787        -0.13385         0.91367
H           0.54243        -0.50154        -0.82372
H           0.57493         1.18231        -0.28593
H           2.65751        -0.93350         0.27001
H           2.80984         0.77054         0.79540
H           4.79251         1.11944        -0.44150
H           6.11194        -1.02622        -1.03351
H           4.58839        -1.72917        -1.61076
H           4.94307        -0.70335         1.00984
H           4.49280         1.89668        -2.76134
H           4.53864         0.26251        -3.37653
H           6.91906         0.00730        -2.52764
H           6.86132         1.63614        -1.90291
H           6.62697         0.76149        -4.83428
H           6.83992         3.57559        -3.63211
H           5.41519         2.92832        -4.47659
H           6.93459         3.18995        -5.34841
H           8.70323         2.02613        -3.35941

