%chk=CCOCC1CdCCC1CCqCrO.chk
%NProcShared=20
# opt freq b3lyp/6-31g(2df,p)

Title Card Required 

0  1
C           0.83508        -0.04898         0.04413
C           2.33510        -0.06029        -0.00710
O           2.76808         1.14803        -0.64464
C           4.18057         1.19906        -0.54544
C           4.81986         2.54214        -0.90887
C           3.97350         3.77666        -0.79253
C           4.64622         4.79625        -0.24374
C           5.99789         4.38996         0.19190
C           6.07305         2.86604        -0.02126
C           6.11256         2.08794         1.31824
C           7.30818         2.27437         2.24020
C           7.51840         3.69292         2.71316
O           7.08979         1.44895         3.38818
H           0.46242        -0.99548         0.44075
H           0.43285         0.12225        -0.95671
H           0.49006         0.76999         0.68370
H           2.70964        -0.91225        -0.58409
H           2.72788        -0.13400         1.01833
H           4.62329         0.41229        -1.16755
H           4.38137         0.92721         0.48229
H           5.12325         2.48908        -1.96499
H           2.96441         3.86374        -1.16272
H           4.25538         5.78398        -0.05621
H           6.00817         4.68295         1.23573
H           6.80216         4.91199        -0.33416
H           6.97959         2.59757        -0.58061
H           6.13013         1.00885         1.10667
H           5.18641         2.28493         1.87935
H           8.20704         1.90534         1.73787
H           6.58622         4.09171         3.13434
H           7.86334         4.32180         1.88869
H           8.27055         3.75375         3.49798
H           6.26440         1.74329         3.81396

