%chk=CCOCqPrNqCrCqCCrOC.chk
%NProcShared=20
# opt freq b3lyp/6-31g(2df,p)

Title Card Required 

0  1
C           0.85798        -0.07739        -0.03404
C           2.35862        -0.22673        -0.14551
O           2.86997        -0.80958         1.06543
C           4.19016        -0.30498         1.36484
P           3.98838         1.51624         1.86028
N           4.86389        -0.92173         2.53325
C           4.42570        -2.33301         2.64933
C           6.37768        -0.97025         2.47422
C           7.09925         0.38568         2.28018
C           7.05427         0.92601         0.85524
O           6.87878        -1.55053         3.71030
C           8.28606        -1.77458         3.77334
H           0.45580         0.40536        -0.92990
H           0.59780         0.53944         0.83415
H           0.38338        -1.05110         0.10160
H           2.76252         0.77127        -0.35132
H           2.65030        -0.85959        -0.98680
H           4.76804        -0.53537         0.46618
H           5.14912         1.84570         2.55928
H           4.47933         2.00553         0.61150
H           3.33641        -2.42990         2.71633
H           4.80787        -2.79995         3.56468
H           4.76900        -2.93664         1.79826
H           6.68231        -1.63982         1.66245
H           8.15863         0.32797         2.50653
H           6.73710         1.08374         3.03697
H           7.82566         0.44729         0.24798
H           7.22043         2.01261         0.87025
H           6.14492         0.75424         0.32572
H           8.51504        -2.35990         4.66959
H           8.83434        -0.83556         3.89330
H           8.65033        -2.31628         2.89516

