%chk=CCOCC1CCCqCrdCCqCCqCrCCrCCO1.chk
%NProcShared=20
# opt freq b3lyp/6-31g(2df,p)

Title Card Required 

0  1
C           1.00472        -0.07916        -0.02455
C           2.51504        -0.04162         0.00866
O           3.01489        -1.02373        -0.88740
C           4.44779        -1.01233        -0.88782
C           4.94779        -2.14346        -1.79385
C           5.96161        -1.58935        -2.82457
C           6.13360        -2.44990        -4.08695
C           4.84903        -3.13865        -4.50430
C           3.71389        -2.24298        -4.94153
C           4.64070        -4.44208        -4.28680
C           5.64131        -5.36339        -3.61486
C           5.56758        -6.77413        -4.22248
C           6.76194        -7.68194        -3.82151
C           6.88867        -7.89333        -2.31282
C           6.63875        -9.03620        -4.52980
C           7.77781        -9.97413        -4.15378
C           5.39326        -5.25777        -2.09203
C           6.23820        -4.18095        -1.40934
O           5.48466        -3.11062        -0.88656
H           0.59297         0.67314         0.65253
H           0.63581        -1.06673         0.27098
H           0.63589         0.11080        -1.03772
H           2.87373        -0.25597         1.02085
H           2.87271         0.94516        -0.30279
H           4.80052        -1.16585         0.13913
H           4.78221        -0.03059        -1.23558
H           4.06867        -2.57885        -2.27371
H           6.94081        -1.46097        -2.34542
H           5.64625        -0.59730        -3.16915
H           6.93775        -3.16068        -3.89833
H           6.53300        -1.86279        -4.91975
H           4.02567        -1.19485        -4.97328
H           2.88041        -2.30319        -4.22937
H           3.34804        -2.52406        -5.93091
H           3.64301        -4.86096        -4.45623
H           6.65996        -5.04761        -3.85725
H           5.58923        -6.67127        -5.32083
H           4.60850        -7.24862        -3.98381
H           7.68444        -7.19550        -4.16910
H           5.91242        -8.15585        -1.88777
H           7.31812        -7.00522        -1.84345
H           7.58423        -8.67001        -2.00666
H           6.64480        -8.88381        -5.61594
H           5.67876        -9.49960        -4.27371
H           8.74396        -9.50413        -4.36494
H           7.70227       -10.91461        -4.69854
H           7.75570       -10.24187        -3.09404
H           5.65198        -6.16704        -1.57283
H           4.32698        -5.16608        -1.86362
H           7.09148        -3.82540        -1.98933
H           6.70767        -4.63511        -0.52945

