%chk=CCqCrdCC1CCCCCCCC1C.chk
%NProcShared=20
# opt freq b3lyp/6-31g(2df,p)

Title Card Required 

0  1
C           1.07141        -0.12041        -0.18111
C           2.57684        -0.11002        -0.34702
C           3.16134         0.93577        -1.23636
C           3.33637        -0.96936         0.33670
C           4.80674        -0.84806         0.78839
C           5.35663         0.60221         1.00964
C           4.87596         1.46074         2.21279
C           3.40550         1.34400         2.61206
C           3.04226         0.75842         3.99135
C           3.27945        -0.72609         4.34968
C           2.87761        -1.72450         3.27382
C           4.03241        -2.55551         2.66413
C           5.20807        -1.80351         1.98552
C           6.12987        -1.18317         3.04658
H           0.58084         0.55993        -0.88076
H           0.80022         0.22644         0.82760
H           0.65331        -1.12142        -0.31387
H           2.43369         1.30793        -1.95611
H           3.97627         0.47462        -1.80818
H           3.52638         1.79304        -0.67174
H           2.78017        -1.81798         0.73201
H           5.35862        -1.24023        -0.08083
H           5.21734         1.19184         0.10496
H           6.45422         0.55014         1.04592
H           5.07775         2.50594         1.93583
H           5.52010         1.36091         3.08945
H           2.82859         0.83028         1.86275
H           2.99313         2.36210         2.57564
H           1.95699         0.90604         4.08461
H           3.50043         1.38020         4.76684
H           2.67451        -0.94361         5.23938
H           4.28227        -0.91454         4.72635
H           2.27317        -1.19933         2.53571
H           2.16229        -2.44244         3.69540
H           3.61366        -3.25849         1.92816
H           4.43663        -3.20849         3.44685
H           5.83931        -2.58444         1.53078
H           5.61618        -0.40036         3.57666
H           7.03124        -0.72306         2.63583
H           6.42504        -1.89318         3.82174

