%chk=CCqCrCCCCqOrCCCqCrC.chk
%NProcShared=20
# opt freq b3lyp/6-31g(2df,p)

Title Card Required 

0  1
C           1.04863         0.02941        -0.01454
C           2.57391         0.04069        -0.05038
C           3.05930         0.24272        -1.48839
C           3.10101         1.13079         0.89167
C           4.62150         1.14482         0.92667
C           5.14329         2.24346         1.83228
C           6.66862         2.25248         1.80464
O           7.14061         2.47972         0.47776
C           7.17854         3.34577         2.72583
C           8.70200         3.36951         2.77224
C           9.22552         4.46045         3.71278
C           8.73863         4.25609         5.14831
C          10.75134         4.47184         3.67478
H           0.65393        -0.76206        -0.65874
H           0.64113         0.98613        -0.35875
H           0.68423        -0.14853         1.00252
H           2.93589        -0.93296         0.30433
H           2.75775         1.22457        -1.86889
H           2.65011        -0.52631        -2.14924
H           4.14850         0.17140        -1.56578
H           2.71852         0.96122         1.90680
H           2.72998         2.11404         0.57504
H           5.01786         1.31957        -0.07694
H           4.99770         0.17141         1.26349
H           4.78039         2.09273         2.85651
H           4.75799         3.20991         1.48301
H           7.05097         1.27889         2.13065
H           6.80728         3.33953         0.18470
H           6.76316         3.16331         3.72169
H           6.81689         4.32441         2.38649
H           9.09580         3.54484         1.76256
H           9.07416         2.38660         3.08826
H           8.86326         5.43352         3.35679
H           9.04234         3.27471         5.52813
H           7.64892         4.32348         5.22145
H           9.14505         5.02566         5.81014
H          11.15940         3.51466         4.01719
H          11.14775         5.26302         4.31797
H          11.11437         4.64952         2.65690

