%chk=CCqCrCCCCCCqCrCCqCrO.chk
%NProcShared=20
# opt freq b3lyp/6-31g(2df,p)

Title Card Required 

0  1
C           0.94072        -0.06797         0.09805
C           2.46539        -0.08631         0.06954
C           2.95939        -1.11806        -0.94702
C           2.97302         1.32224        -0.24898
C           4.48581         1.39280        -0.22792
C           4.95006         2.80488        -0.53842
C           6.45723         2.78956        -0.54049
C           7.04553         4.13760        -0.92575
C           8.58028         4.05327        -0.99291
C           8.98216         2.96655        -1.99680
C           9.15400         5.44264        -1.33359
C          10.68575         5.55823        -1.31698
C          11.42308         4.74648        -2.37279
O          11.01721         6.93322        -1.54506
H           0.54722        -1.05560         0.35387
H           0.53516         0.22262        -0.87724
H           0.57548         0.64727         0.84265
H           2.82974        -0.37534         1.06379
H           2.65293        -0.84515        -1.96256
H           2.55880        -2.10981        -0.71925
H           4.04996        -1.21006        -0.93774
H           2.57816         2.03494         0.48611
H           2.60701         1.64359        -1.23240
H           4.91178         0.71551        -0.97787
H           4.87102         1.07129         0.74788
H           4.56971         3.52163         0.19399
H           4.58737         3.10132        -1.53075
H           6.73058         2.01967        -1.26449
H           6.85263         2.46960         0.43129
H           6.73338         4.89073        -0.19108
H           6.64514         4.45433        -1.89740
H           8.94790         3.76920         0.00210
H           8.78908         3.29107        -3.02348
H           8.47728         2.01399        -1.84915
H          10.01495         2.66645        -1.87553
H           8.76298         6.17148        -0.60559
H           8.76327         5.79013        -2.29950
H          11.06001         5.29610        -0.32311
H          10.93136         4.83299        -3.34792
H          11.50600         3.69581        -2.10366
H          12.45340         5.08893        -2.49000
H          10.76884         7.14514        -2.45475

