%chk=CdCCCqCrCCCqCOrCCCCO.chk
%NProcShared=20
# opt freq b3lyp/6-31g(2df,p)

Title Card Required 

0  1
C           0.86247        -0.06332        -0.03930
C           2.20254        -0.06966        -0.06828
C           3.01762        -1.30361         0.15670
C           4.52634        -0.99703         0.17006
C           4.90585        -0.02722         1.28785
C           5.27810        -2.31469         0.32287
C           6.79162        -2.15358         0.25449
C           7.53848        -3.48378         0.41438
C           7.18131        -4.49812        -0.68932
O           5.83126        -4.93137        -0.65869
C           9.04919        -3.18117         0.41736
C           9.86717        -4.44550         0.63599
C          11.35681        -4.17140         0.59937
C          12.11494        -5.47720         0.77699
O          13.50911        -5.22898         0.73929
H           0.32215         0.86326        -0.18668
H           0.30113        -0.97430         0.12712
H           2.72129         0.86583        -0.25343
H           2.79642        -2.02771        -0.63995
H           2.73382        -1.77388         1.10784
H           4.80314        -0.55857        -0.79885
H           4.67593        -0.46253         2.26537
H           4.37764         0.92337         1.19784
H           5.97053         0.21737         1.26004
H           4.93462        -2.94348        -0.49983
H           5.00226        -2.81407         1.26082
H           7.13185        -1.48728         1.05571
H           7.06825        -1.67305        -0.69233
H           7.26223        -3.90172         1.39253
H           7.75981        -5.41435        -0.58944
H           7.38979        -4.06651        -1.67364
H           5.59088        -5.10008         0.26762
H           9.28584        -2.45732         1.20974
H           9.33527        -2.70838        -0.53124
H           9.65994        -5.17453        -0.15122
H           9.58215        -4.90395         1.59050
H          11.64008        -3.45546         1.37854
H          11.63040        -3.71150        -0.35870
H          11.86297        -6.19152        -0.01519
H          11.86788        -5.93809         1.73877
H          13.70713        -4.83225        -0.12614

