%chk=CdCCCCCC1CCCOCCCC2qCC1rCCC2C.chk
%NProcShared=20
# opt freq b3lyp/6-31g(2df,p)

Title Card Required 

0  1
C           1.06263        -0.03121         0.00488
C           2.37964        -0.04421         0.01696
C           3.16114        -0.97280         0.89437
C           4.64861        -0.76984         0.69493
C           5.39416        -1.72768         1.58801
C           6.87688        -1.52320         1.39617
C           7.60186        -2.47175         2.33344
C           7.73332        -3.89953         1.70877
C           7.58654        -5.01739         2.75981
C           8.82707        -5.89256         2.96840
O           8.98241        -6.40944         4.29585
C           8.99811        -5.48690         5.39439
C          10.29629        -4.69846         5.55379
C          10.09381        -3.23065         5.95755
C          10.39544        -2.17681         4.85533
C           9.08837        -1.59654         4.19684
C           8.92080        -1.78893         2.67214
C          11.21344        -1.03668         5.53991
C          11.67617        -0.63103         4.12313
C          11.63590        -2.26348         3.83477
C          11.26095        -3.42925         2.90151
H           0.51240         0.65189        -0.64192
H           0.48228        -0.70302         0.64094
H           2.94108         0.63860        -0.62941
H           2.90353        -2.01259         0.65871
H           2.90743        -0.79205         1.94638
H           4.93569         0.26150         0.93968
H           4.93325        -0.94953        -0.34920
H           5.11676        -2.76363         1.36763
H           5.13237        -1.54061         2.63874
H           7.10765        -0.47760         1.64352
H           7.19132        -1.68200         0.35795
H           7.00341        -2.55742         3.24576
H           8.65449        -4.00629         1.12417
H           6.92259        -4.04462         0.98216
H           6.77483        -5.68527         2.44052
H           7.22032        -4.59162         3.69127
H           9.75303        -5.43607         2.63889
H           8.75037        -6.75964         2.29918
H           8.88080        -6.10021         6.29490
H           8.12506        -4.83649         5.37147
H          10.89243        -4.82621         4.67293
H          10.93247        -5.17921         6.30947
H          10.73970        -3.04600         6.82656
H           9.08197        -3.06974         6.35259
H           9.03986        -0.50851         4.35652
H           8.21480        -1.95616         4.74566
H           9.66214        -2.31121         2.10132
H           9.05077        -0.80626         2.19545
H          12.05753        -1.37594         6.15966
H          10.63028        -0.33454         6.14272
H          12.64345        -0.11807         4.17721
H          10.96967         0.08591         3.67933
H          12.61323        -2.62444         4.17838
H          10.23644        -3.73462         3.13969
H          11.84596        -4.33206         3.11040
H          11.30921        -3.29569         1.82009

