%chk=CdCCqOrCOCqCrCqCCrCCCCCO.chk
%NProcShared=20
# opt freq b3lyp/6-31g(2df,p)

Title Card Required 

0  1
C           0.89601         0.07254         0.02582
C           2.23728         0.10684         0.04204
C           3.02514         1.35082         0.33365
O           2.67310         1.81717         1.63403
C           4.51991         1.04032         0.23086
O           5.29083         2.23408         0.32373
C           6.69728         1.98827         0.38504
C           7.13136         1.49070        -0.99440
C           7.41534         3.30256         0.78892
C           6.99381         3.81270         2.19254
C           5.52337         4.15703         2.33902
C           8.94112         3.09126         0.74492
C           9.72739         4.35914         1.02738
C          11.21697         4.07858         0.94586
C          11.98842         5.35102         1.24836
C          13.48031         5.09112         1.18878
O          14.18468         6.28780         1.47619
H           0.36589        -0.84333        -0.19993
H           0.32486         0.96882         0.24171
H           2.78426        -0.80389        -0.18824
H           2.77450         2.14419        -0.37985
H           2.96517         1.14757         2.27234
H           4.69455         0.58574        -0.74750
H           4.82700         0.34412         1.02070
H           6.90595         1.23003         1.15225
H           6.85339         2.22935        -1.75416
H           6.62972         0.55748        -1.25918
H           8.19618         1.27405        -1.06126
H           7.14604         4.08166         0.06211
H           7.53259         4.73580         2.43013
H           7.28073         3.07801         2.95445
H           5.21681         4.86537         1.56302
H           5.33565         4.60893         3.31644
H           4.89342         3.27001         2.29122
H           9.25255         2.75269        -0.24774
H           9.22551         2.30146         1.45231
H           9.51031         4.74197         2.02727
H           9.44544         5.13251         0.30271
H          11.47717         3.70240        -0.05088
H          11.48303         3.29720         1.66887
H          11.71681         5.73547         2.23997
H          11.71307         6.13882         0.53586
H          13.77616         4.73613         0.19655
H          13.76775         4.33480         1.92578
H          13.91308         6.94858         0.81641

