%chk=CdCCNN1CdCCdCqOrNC1CNOC.chk
%NProcShared=20
# opt freq b3lyp/6-31g(2df,p)

Title Card Required 

0  1
C           1.16141         0.02623         0.04560
C           2.50642        -0.03748         0.04929
C           3.30444        -1.31314         0.29583
N           4.77219        -1.09563         0.30644
N           5.58710        -2.32183         0.31106
C           5.28858        -3.39979         1.16463
C           5.65865        -4.68883         1.01502
C           6.14958        -5.27443        -0.21413
C           6.78638        -4.63069        -1.21200
O           7.03978        -5.28760        -2.39279
N           7.18761        -3.33822        -1.23701
C           7.02030        -2.29935        -0.22406
C           7.54353        -0.92963        -0.81185
N           9.01297        -0.96756        -1.14081
O           9.32282         0.27865        -1.84631
C          10.71381         0.28091        -2.19772
H           0.63192         0.95967        -0.14344
H           0.54050        -0.84822         0.21913
H           3.04939         0.88461        -0.14727
H           3.02773        -2.03012        -0.48508
H           2.98258        -1.70471         1.26861
H           5.01830        -0.48029         1.08044
H           4.72800        -3.13471         2.05600
H           5.44742        -5.42033         1.79457
H           5.91367        -6.32801        -0.33624
H           6.44688        -6.05695        -2.43350
H           7.84325        -3.15154        -1.98106
H           7.68737        -2.51655         0.62729
H           7.38621        -0.12299        -0.08725
H           6.98428        -0.68933        -1.72342
H           9.14418        -1.65613        -1.88151
H          10.95695         1.23020        -2.68678
H          10.92598        -0.52734        -2.90695
H          11.34727         0.17516        -1.31072

