%chk=CdCqCCCrCqCCCNrCCCCqCrCCCC.chk
%NProcShared=20
# opt freq b3lyp/6-31g(2df,p)

Title Card Required 

0  1
C           0.86956         0.25124         0.15340
C           2.21353         0.15170         0.01106
C           2.97857         1.14198        -0.84665
C           2.08349         2.12757        -1.59146
C           2.87230         3.15167        -2.36763
C           3.00127        -0.94802         0.73502
C           2.62761        -2.37776         0.23459
C           1.15271        -2.72336         0.37965
C           0.80924        -4.12155        -0.08333
N          -0.63216        -4.28148         0.06707
C           4.53195        -0.73981         0.62274
C           5.31283        -1.76650         1.41686
C           6.81108        -1.58674         1.24851
C           7.56611        -2.68025         2.01410
C           7.17990        -4.08446         1.52044
C           9.07131        -2.43656         1.86536
C           9.87299        -3.45534         2.66268
C          11.36556        -3.23802         2.50226
C          12.11715        -4.29647         3.28745
H           0.26031         0.92867        -0.42799
H           0.30121        -0.38414         0.81655
H           3.60170         0.60893        -1.57541
H           3.65072         1.71514        -0.19363
H           1.44865         2.66441        -0.87601
H           1.43375         1.57599        -2.28172
H           3.50144         3.74195        -1.69544
H           2.17693         3.82627        -2.87462
H           3.50400         2.66811        -3.11653
H           2.75063        -0.88219         1.80390
H           3.16540        -3.13694         0.81084
H           2.93803        -2.49212        -0.81134
H           0.56309        -2.07187        -0.26428
H           0.85105        -2.57299         1.42539
H           1.34865        -4.87590         0.49518
H           1.07789        -4.22636        -1.13933
H          -0.89051        -4.18053         1.04774
H          -0.91192        -5.21179        -0.22810
H           4.81456         0.25632         0.98163
H           4.84400        -0.81536        -0.42716
H           5.05560        -2.75217         1.03771
H           5.03560        -1.72756         2.47612
H           7.10511        -0.59297         1.60876
H           7.07268        -1.62970         0.18285
H           7.30056        -2.60077         3.07698
H           7.42366        -4.19898         0.45901
H           6.11751        -4.29780         1.65611
H           7.68664        -4.87166         2.08128
H           9.31750        -1.42484         2.21384
H           9.35261        -2.48331         0.80560
H           9.65111        -4.47002         2.31949
H           9.58645        -3.40010         3.72016
H          11.64098        -2.23827         2.85302
H          11.63528        -3.30618         1.44185
H          11.86367        -4.24029         4.35109
H          13.19444        -4.15737         3.17656
H          11.85926        -5.29998         2.93096

