%chk=CdCqCrCqCqCCdOrCCCCCCCrC1CCCC1.chk
%NProcShared=20
# opt freq b3lyp/6-31g(2df,p)

Title Card Required 

0  1
C           0.90428         0.08203        -0.22432
C           2.23918        -0.06189        -0.15484
C           2.78669        -0.90951        -1.26441
C           3.16169         0.60242         0.92725
C           2.87722         0.08501         2.41566
C           3.65561         0.83456         3.53972
C           5.14374         0.60718         3.63495
O           5.89851         1.36751         4.21569
C           1.37281         0.21168         2.75186
C           0.95447        -0.32141         4.10361
C          -0.54778        -0.16457         4.26728
C          -0.93605        -0.72873         5.61810
C          -2.42509        -0.57096         5.84418
C          -2.80349        -1.13709         7.20325
C          -4.29132        -0.98275         7.43730
C           4.69760         0.55674         0.62695
C           5.29240        -0.74993         0.11725
C           6.65885        -0.43133        -0.41908
C           6.59819         1.05764        -0.76330
C           5.24331         1.61879        -0.30688
H           0.32889        -0.49826        -0.94254
H           0.32926         0.70515         0.44399
H           2.05009        -1.27009        -1.98448
H           3.21566        -1.82719        -0.84844
H           3.48231        -0.30561        -1.86080
H           2.88470         1.66978         0.93778
H           3.14470        -0.97841         2.45385
H           3.33051         0.47221         4.51804
H           3.44994         1.90989         3.49562
H           5.52082        -0.32983         3.18297
H           0.79549        -0.40475         2.06604
H           1.05055         1.25724         2.64228
H           1.43904         0.21090         4.92339
H           1.23236        -1.37988         4.16552
H          -1.08404        -0.68742         3.46526
H          -0.82439         0.89589         4.20233
H          -0.37898        -0.20844         6.40721
H          -0.65525        -1.78803         5.66677
H          -2.97640        -1.09007         5.05074
H          -2.69658         0.49040         5.78825
H          -2.24771        -0.61651         7.99217
H          -2.52718        -2.19683         7.25577
H          -4.57817         0.07321         7.40782
H          -4.56423        -1.38977         8.41377
H          -4.85923        -1.51456         6.66735
H           5.23921         0.81577         1.52181
H           4.86209        -1.07580        -0.80697
H           5.20723        -1.59203         0.80890
H           6.83012        -1.02207        -1.33093
H           7.43768        -0.69943         0.29639
H           6.70412         1.21711        -1.83960
H           7.42681         1.56260        -0.25960
H           4.56405         1.82156        -1.13710
H           5.39091         2.56235         0.23798

