%chk=CNCqCNrqCCqCrCrC1dCCdCCdCC1N.chk
%NProcShared=20
# opt freq b3lyp/6-31g(2df,p)

Title Card Required 

0  1
C           1.34636         0.32079        -0.51587
N           2.73615         0.23854        -0.24503
C           3.03660         0.39513         1.22702
C           2.60061         1.85077         1.64514
N           3.03264         2.84178         0.64897
C           2.28298        -0.61756         2.21816
C           0.71940        -0.76999         2.37709
C          -0.12223        -1.47663         1.28123
C           0.45155        -1.66625         3.59656
C           4.62955         0.27493         1.32090
C           5.33815         0.27346         0.17069
C           6.73859         0.30228        -0.12982
C           7.75977         0.34397         0.69209
C           7.73939         0.39433         2.12774
C           6.69171         0.41117         2.94113
C           5.21747         0.28563         2.72506
N           4.98281        -0.96596         3.44592
H           0.98441        -0.08523        -1.45665
H           0.81560         1.22403        -0.20503
H           1.14442        -0.43902         0.15933
H           3.13539         1.05101        -0.71333
H           2.97588         2.12208         2.63664
H           1.50921         1.90674         1.72200
H           4.05263         2.83305         0.61901
H           2.73653         3.76852         0.93699
H           2.54218        -0.23458         3.21914
H           2.72241        -1.61863         2.11527
H           0.31134         0.22508         2.58499
H           0.41345        -2.36643         0.92680
H          -0.42003        -0.88453         0.41026
H          -1.12100        -1.71530         1.63659
H           0.83690        -2.67635         3.40798
H          -0.63026        -1.74424         3.75056
H           0.89697        -1.28782         4.51769
H           4.83320         0.26567        -0.79309
H           6.93808         0.30530        -1.20786
H           8.75513         0.35253         0.24975
H           8.72322         0.38980         2.58942
H           6.92849         0.43377         4.00969
H           4.77880         1.13757         3.25850
H           5.25665        -1.72411         2.82336
H           4.01848        -1.12095         3.68654

