%chk=COC1CCqCOrCCCCCCCPO1.chk
%NProcShared=20
# opt freq b3lyp/6-31g(2df,p)

Title Card Required 

0  1
C           1.04331        -0.24793        -0.13819
O           2.46776        -0.20109        -0.05221
C           2.88759         1.01033         0.58399
C           3.72200         0.70086         1.84438
C           2.96782         0.98895         3.20498
C           1.52929         1.53003         3.03921
O           0.79292         1.64248         4.23940
C           3.85644         1.84402         4.15658
C           3.23921         3.13751         4.71948
C           3.98247         4.40674         4.30709
C           3.10564         5.32530         3.43402
C           3.80294         5.72803         2.12878
C           2.94794         5.42943         0.88701
C           3.69368         4.58048        -0.15529
P           2.63426         3.19430        -0.75853
O           3.55223         1.91007        -0.31563
H           0.73613        -1.10685        -0.73346
H           0.64656         0.66474        -0.59685
H           0.61522        -0.37008         0.86022
H           1.99519         1.52600         0.89261
H           4.67206         1.24773         1.80183
H           4.00730        -0.36323         1.85067
H           2.86338         0.01256         3.70384
H           0.93188         0.87278         2.41449
H           1.55846         2.52239         2.56518
H           0.83702         0.77811         4.70159
H           4.82302         2.05972         3.68706
H           4.12576         1.20842         5.01267
H           3.20207         3.05931         5.81173
H           2.20152         3.27748         4.44477
H           4.92520         4.16012         3.81145
H           4.25321         4.95057         5.21903
H           2.87176         6.23050         4.00897
H           2.13025         4.87293         3.22375
H           4.78069         5.24526         2.04742
H           4.00758         6.80475         2.16619
H           2.67138         6.38538         0.42227
H           1.99448         4.96995         1.17326
H           4.63324         4.17714         0.23622
H           3.95013         5.20829        -1.01454
H           2.87515         3.23702        -2.14458

