%chk=COC1CqCrCCqCrOCCC1qCrC.chk
%NProcShared=20
# opt freq b3lyp/6-31g(2df,p)

Title Card Required 

0  1
C           1.09120         0.17347        -0.10471
O           2.51493         0.31561         0.02327
C           3.13684        -0.94499         0.35991
C           4.06211        -1.36832        -0.81321
C           5.29539        -0.47667        -0.99336
C           4.47892        -2.84978        -0.79365
C           3.36778        -3.88337        -0.51974
C           1.94404        -3.56196        -0.99906
O           3.42930        -4.37642         0.82186
C           3.05767        -3.53118         1.90780
C           4.08142        -2.42734         2.24988
C           3.68808        -0.97585         1.81743
C           4.87590        -0.02158         2.01436
C           2.58064        -0.47903         2.78120
H           0.65922         1.14257        -0.37618
H           0.64740        -0.14374         0.84349
H           0.83320        -0.55329        -0.88171
H           2.33059        -1.63471         0.39383
H           3.47901        -1.22315        -1.73416
H           6.09199        -0.73415        -0.29149
H           5.04141         0.58147        -0.86983
H           5.73132        -0.59871        -1.98920
H           5.31321        -3.00856        -0.10134
H           4.91605        -3.07695        -1.77760
H           3.65718        -4.75553        -1.12118
H           1.33917        -2.98259        -0.30132
H           1.36399        -4.48251        -1.10276
H           1.95266        -3.04304        -1.96263
H           3.00746        -4.20291         2.77306
H           2.03445        -3.16893         1.78233
H           5.06952        -2.69638         1.86679
H           4.20397        -2.41986         3.34211
H           5.81142        -0.45426         1.65561
H           5.04570         0.20678         3.07014
H           4.70630         0.93042         1.49676
H           1.71421        -1.14596         2.78215
H           2.23652         0.52509         2.51242
H           2.95184        -0.42204         3.81090

