%chk=COCCCCCCqOrOCCCOCqCrqCrC.chk
%NProcShared=20
# opt freq b3lyp/6-31g(2df,p)

Title Card Required 

0  1
C           0.87397         0.01513        -0.01601
O           2.29480        -0.00643        -0.03380
C           2.76746        -1.05746        -0.86840
C           4.28474        -1.04762        -0.86239
C           4.81312        -2.16417        -1.75128
C           6.33066        -2.16962        -1.75142
C           6.86433        -3.29232        -2.63026
C           8.38271        -3.30213        -2.61253
O           8.85656        -3.49358        -1.28826
O           8.83102        -4.36676        -3.43470
C          10.24664        -4.36586        -3.50249
C          10.71877        -5.49468        -4.39907
C          12.23108        -5.46345        -4.37020
O          12.80119        -6.48362        -5.17842
C          14.24286        -6.49074        -5.18068
C          14.79818        -5.17972        -5.75649
C          14.79641        -6.75432        -3.77234
C          14.67618        -7.64378        -6.09501
H           0.54708         0.83122         0.63185
H           0.48604        -0.92854         0.37997
H           0.48553         0.18642        -1.02475
H           2.39826        -0.90924        -1.88982
H           2.39963        -2.01887        -0.49139
H           4.65438        -1.16461         0.16429
H           4.65410        -0.07357        -1.20702
H           4.44300        -2.03411        -2.77544
H           4.44113        -3.13182        -1.39230
H           6.69191        -2.29175        -0.72325
H           6.70838        -1.20614        -2.11475
H           6.50663        -3.18261        -3.66196
H           6.48368        -4.25784        -2.27322
H           8.76489        -2.34744        -2.99268
H           8.44510        -4.31660        -0.98983
H          10.66330        -4.50817        -2.49733
H          10.59940        -3.40075        -3.88809
H          10.33567        -5.37325        -5.41847
H          10.33637        -6.46009        -4.04786
H          12.54731        -5.58893        -3.33119
H          12.55017        -4.47979        -4.72426
H          14.54895        -4.31610        -5.13191
H          14.37234        -4.98456        -6.74771
H          15.88835        -5.20759        -5.83890
H          14.54671        -5.95021        -3.07300
H          15.88669        -6.84104        -3.77983
H          14.37060        -7.67558        -3.35770
H          14.28714        -7.50983        -7.11054
H          14.28681        -8.60210        -5.73350
H          15.76818        -7.71496        -6.15110

