%chk=COCCqdOrCOCCSCqCrCO.chk
%NProcShared=20
# opt freq b3lyp/6-31g(2df,p)

Title Card Required 

0  1
C           1.01985         0.06605         0.06248
O           2.43509         0.06456         0.06696
C           2.98324        -0.29852         1.32714
C           4.50992        -0.28163         1.26761
O           5.12689         0.01406         0.23982
C           5.22787        -0.65511         2.56173
O           6.64107        -0.60531         2.37976
C           7.34990        -0.94888         3.56495
C           8.85926        -0.87542         3.31042
S           9.69170        -1.33413         4.87155
C          11.47123        -1.18218         4.44415
C          11.84793         0.23109         4.01009
C          12.26893        -1.57774         5.70318
O          13.67625        -1.51597         5.47885
H           0.68236         0.35426        -0.93690
H           0.63772         0.79247         0.78494
H           0.63756        -0.93344         0.28724
H           2.65444        -1.30929         1.59292
H           2.65448         0.41570         2.09015
H           4.92842        -1.67038         2.84574
H           4.93049         0.05412         3.34264
H           7.06287        -1.96419         3.86238
H           7.06577        -0.24589         4.35730
H           9.12406         0.13978         2.99739
H           9.14130        -1.55791         2.50083
H          11.71208        -1.88322         3.63611
H          11.61289         0.96359         4.78989
H          11.34027         0.52426         3.08774
H          12.92360         0.29941         3.81067
H          12.02964        -2.59676         6.02785
H          12.04631        -0.89868         6.53491
H          13.89055        -2.14136         4.76652

