%chk=COCCCOCCCOC1dCCO1.chk
%NProcShared=20
# opt freq b3lyp/6-31g(2df,p)

Title Card Required 

0  1
C           1.00661         0.09016         0.02145
O           2.42971         0.09601         0.03876
C           2.91518         0.50819         1.31330
C           4.43754         0.50823         1.31316
C           4.95322         0.94915         2.67575
O           6.38354         0.95654         2.69773
C           6.86459         1.36851         3.98319
C           8.39179         1.37226         4.01490
C           8.93073         1.80481         5.39322
O          10.35828         1.82528         5.36006
C          10.93366         2.23578         6.42750
C          11.98617         3.06918         6.63119
C          11.86504         2.82472         8.08953
O          10.78243         1.94946         7.68344
H           0.66842        -0.22973        -0.96699
H           0.62100         1.09568         0.21754
H           0.62119        -0.60995         0.76947
H           2.54129        -0.18055         2.08025
H           2.54128         1.51561         1.53158
H           4.81886         1.16849         0.52462
H           4.81890        -0.48884         1.06098
H           4.58402         0.26238         3.44702
H           4.58383         1.95740         2.89887
H           6.47901         0.67719         4.74064
H           6.48514         2.37513         4.19251
H           8.77577         2.03427         3.22723
H           8.77215         0.37751         3.74930
H           8.56655         1.11137         6.16085
H           8.55525         2.81277         5.61304
H          12.63894         3.66058         6.01128
H          11.52482         3.65600         8.71634
H          12.70055         2.30967         8.57992

