%chk=COCOC1CCqOCqOrCqCrCrCCO1.chk
%NProcShared=20
# opt freq b3lyp/6-31g(2df,p)

Title Card Required 

0  1
C           1.05599        -0.14929        -0.07984
O           2.47839        -0.25195        -0.04186
C           2.97768         0.56986         1.00495
O           4.37166         0.81105         0.88316
C           4.93747         1.66385         1.88489
C           3.98961         2.66453         2.51275
C           3.48814         3.71751         1.51737
O           2.65748         4.68132         2.18536
C           1.43348         4.11731         2.67312
O           1.70019         3.28082         3.79002
C           0.48337         5.20431         3.17411
C           0.06256         6.13223         2.04274
C          -0.74111         4.56516         3.84273
C           4.69222         4.36628         0.83482
C           5.65466         3.29004         0.32480
O           6.04953         2.39244         1.36282
H           0.67610        -0.78760        -0.87839
H           0.74728         0.88346        -0.28639
H           0.63056        -0.47075         0.87635
H           2.73125         0.12622         1.97492
H           2.44927         1.51103         0.90126
H           5.32105         1.02145         2.68760
H           4.46941         3.19041         3.34862
H           3.17890         2.08495         2.94660
H           2.89008         3.30927         0.69906
H           0.95145         3.52024         1.88876
H           2.21326         3.83548         4.39217
H           1.01122         5.79998         3.92970
H          -0.48505         5.58472         1.26847
H           0.93266         6.60346         1.57527
H          -0.58616         6.92624         2.42477
H          -1.30551         3.95595         3.12814
H          -1.40586         5.32909         4.25328
H          -0.45062         3.91092         4.67354
H           5.19917         5.03093         1.54229
H           4.35974         4.99170        -0.00281
H           6.56261         3.75520        -0.06868
H           5.20743         2.71321        -0.49338

