%chk=[C]1CdCCdC[SH]dCdCCdC[CH]C1.chk
%NProcShared=20
# opt freq b3lyp/6-31g(2df,p)

Title Card Required 

0  2
C           2.29430        -0.91314         1.14975
C           2.92342         0.22292         0.59322
C           3.99931        -0.08059         1.30436
C           5.23162        -0.55005         0.78807
C           5.85866        -1.47508         1.50813
S           7.59917        -1.53025         1.33907
C           7.95453        -2.58453         2.50861
C           8.06558        -3.55369         3.29163
C           6.77319        -4.30050         3.28368
C           5.59934        -3.75554         3.54192
C           3.95639        -3.46661         2.60533
C           2.79325        -2.51876         1.47412
H           2.95950         0.56173        -0.47111
H           3.79854        -0.56551         2.29322
H           5.61933        -0.00194        -0.03852
H           5.30360        -1.89973         2.32588
H           7.75601        -0.45219         2.05740
H           9.02761        -3.75267         3.81536
H           6.83928        -5.27740         2.76152
H           5.54747        -4.63050         4.35633
H           3.67560        -4.36257         3.23328
H           2.84994        -2.78083         0.37064
H           1.63144        -2.41830         1.47097

