%chk=[CH]CdC1CdCCdCSC1dNC.chk
%NProcShared=20
# opt freq b3lyp/6-31g(2df,p)

Title Card Required 

0  1
C           1.49689        -0.01585         0.08089
C           2.89899         0.20224        -0.12095
C           3.48342         1.07079        -0.97726
C           2.75502         1.83837        -1.97480
C           2.99126         3.11197        -2.33772
C           3.75869         4.09830        -1.63132
C           4.76039         3.98962        -0.74242
S           5.58886         2.62273        -0.13928
C           5.01187         1.18906        -0.97734
N           5.82381         0.32125        -1.49569
C           7.27790         0.59188        -1.52369
H           0.53670        -0.32471         0.44559
H           3.50888        -0.39164         0.54899
H           1.95355         1.31787        -2.49414
H           2.41813         3.51767        -3.17286
H           3.40791         5.11501        -1.81866
H           5.09177         4.92069        -0.29385
H           7.83304        -0.28985        -1.87133
H           7.71018         0.84539        -0.54669
H           7.51059         1.39479        -2.23512

