%chk=[N][C]C1dCCdNCdCC1.chk
%NProcShared=20
# opt freq b3lyp/6-31g(2df,p)

Title Card Required 

0  1
N           1.05601         0.69627        -0.06382
C           2.14874        -0.19633         0.27826
C           2.84633        -1.41311         0.54178
C           3.83963        -1.44845         1.43811
C           4.41927        -2.67665         2.02827
N           4.16641        -3.93833         1.92019
C           3.22436        -4.48081         1.11649
C           2.38937        -3.93515         0.22867
C           2.17909        -2.53872        -0.17872
H           4.24038        -0.53247         1.86952
H           5.21072        -2.44908         2.76550
H           3.15936        -5.56487         1.20588
H           1.72954        -4.61632        -0.30559
H           1.09594        -2.37114        -0.08750
H           2.42420        -2.45161        -1.24504

