%chk=[N][N]c1cc2cq[nH]1rdNCdNCdCCdCNdCCd2.chk
%NProcShared=20
# opt freq b3lyp/6-31g(2df,p)

Title Card Required 

0  2
N           1.11833        -0.13103         0.00350
N           2.58448        -0.26241        -0.01303
C           3.44237        -1.59480        -0.07899
C           4.36157        -3.13865        -0.24997
C           6.11532        -4.00827         0.77620
C           4.86701        -2.73014         0.45851
N           4.35546        -1.55799         0.74229
N           5.87150        -3.09246         1.14962
C           6.29174        -2.38493         2.01879
N           7.20815        -2.78126         2.59729
C           7.80220        -2.30013         3.48170
C           8.61039        -3.16824         3.63133
C           9.60224        -2.99821         4.67087
C          10.18774        -4.67024         4.08216
N          10.38631        -3.64867         4.97644
C           9.56660        -4.52787         3.63776
C           7.71971        -4.38157         2.01653
H           3.11829        -2.78773        -1.17699
H           4.66248        -1.02503         1.44024
H           6.00895        -1.56925         2.30906
H           7.93332        -1.58970         4.07901
H           8.72012        -4.58043         2.77322
H           9.80536        -2.03477         5.51553
H          11.29994        -5.26895         4.72137
H          10.75372        -4.02941         5.06139
H           6.92196        -4.87119         0.93077

