%chk=[N]dCdCqCCCdCOrN[O].chk
%NProcShared=20
# opt freq b3lyp/6-31g(2df,p)

Title Card Required 

0  1
N           1.18291         0.07260        -0.11670
C           2.43903         0.06995        -0.11502
C           3.74213         0.00274        -0.07247
C           4.48530        -1.11642         0.63607
C           3.55603        -2.14900         1.28980
C           4.29784        -3.25404         1.98940
C           3.64635        -4.24032         2.61382
O           4.24842        -5.27522         3.26902
N           4.44660         0.99973        -0.70367
O           5.82327         1.06031        -0.74202
H           5.13389        -0.68439         1.40988
H           5.13389        -1.63107        -0.08543
H           2.91175        -2.59316         0.51964
H           2.91175        -1.64283         2.02070
H           5.38298        -3.21821         1.96672
H           2.56601        -4.31051         2.65826
H           5.21088        -5.15464         3.19268
H           3.95064         1.74803        -1.17742

