%chk=[SH]tSC1dC2CdCCdC2CdCCdCS1.chk
%NProcShared=20
# opt freq b3lyp/6-31g(2df,p)

Title Card Required 

0  1
S           0.61086        -0.25890         0.00376
S           2.39880         0.45392        -0.76318
C           3.73698        -0.77960        -0.33730
C           4.78019        -0.83467        -1.26199
C           5.13745        -1.59074        -2.52454
C           6.50037        -1.62361        -2.56654
C           7.04859        -0.85750        -1.46730
C           6.01443        -0.19218        -0.85263
C           6.02321         0.99869        -0.09896
C           6.75723         1.23990         1.02083
C           5.84069         1.36468         2.17227
C           5.38881         0.12311         2.42439
S           4.01186        -0.76361         1.64801
H           0.41780         0.47592         1.12239
H           4.56035        -2.00739        -3.34811
H           7.16831        -2.01075        -3.34141
H           8.06589        -0.66199        -1.25251
H           5.01804         1.42353        -0.05018
H           7.66290         0.64798         1.15066
H           5.14931         2.19339         2.33279
H           6.26295        -0.40933         2.82687

