%chk=C1dCCdCNdc2cccqcnncnc2rdCCdC1.chk
%NProcShared=20
# opt freq b3lyp/6-31g(2df,p)

Title Card Required 

0  1
C           2.81583         0.81536        -0.60099
C           3.82001         0.04125         0.07367
C           3.78273         1.14562        -0.88882
C           5.63652         0.86343        -0.64289
N           5.56557         2.53812        -2.10242
C           6.22928         1.43276        -1.13907
C           6.56417         3.14678        -2.63289
C           8.01454         3.08860        -2.58218
C           8.47828         3.94135        -3.32537
C           8.67881         4.87914        -4.14268
N           7.41521         4.94306        -4.19839
N           6.68124         5.75995        -4.91033
C           5.45974         5.51995        -4.70117
N           5.44451         4.12587        -3.48619
C           5.94645         2.77413        -2.30811
C           9.13088         3.10990        -2.60074
C           7.21573         2.13980        -1.75528
C           4.85183         1.74488        -1.41109
H           1.00556         0.73901        -0.53445
H           3.02057        -0.62298         0.65256
H           2.68099         1.88255        -1.53108
H           5.27864         0.22749        -0.08864
H           6.90978         3.80299        -3.20479
H           9.20645         2.02458        -1.65486
H           9.29492         5.50662        -4.68955
H           4.65588         5.05579        -4.29663
H           6.82326         1.36657        -1.08138
H          10.89631         3.19425        -2.67425
H           9.11569         2.80609        -2.33596
H           2.89451         0.79734        -0.58528

