%chk=C1dCOCdc2ccccc3cccn3ncc2dN1.chk
%NProcShared=20
# opt freq b3lyp/6-31g(2df,p)

Title Card Required 

0  1
C           2.76610        -1.90429        -0.50949
C           2.94301        -0.65943         0.10023
O           3.94861        -0.78625         0.97878
C           5.01467        -1.22904         0.20247
C           5.65693        -2.41935         0.32571
C           6.99981        -2.33504         0.52956
C           7.53713        -3.47116         0.92295
C           8.91646        -3.54522         0.85832
C           9.47080        -4.69886         1.19982
C          10.76411        -4.74214         0.86257
C          11.79029        -3.99398         1.33301
C          12.97437        -4.46653         0.87481
C          12.49851        -5.40706        -0.13556
N          10.73796        -5.44696        -0.27082
N           9.01817        -5.35631        -1.01912
C           7.32986        -4.80342        -1.03472
C           5.60099        -3.69111        -0.65320
N           3.93457        -3.27693        -0.82466
H           1.47111        -1.71978        -0.24630
H           2.90504         0.48865        -0.17660
H           5.38207        -0.23516         0.01085
H           7.42825        -1.41466         0.21049
H           6.94662        -4.40854         1.03757
H           9.45072        -2.72319         0.37614
H           8.97930        -5.67748         1.20278
H          11.60799        -3.20082         2.02483
H          13.97273        -4.11736         1.28088
H          13.34510        -6.13443        -0.38360
H           7.37675        -6.01747        -1.14388

