%chk=C1dCc2ccccccc3cqc2dC1rdCN3.chk
%NProcShared=20
# opt freq b3lyp/6-31g(2df,p)

Title Card Required 

0  1
C           1.77949        -0.73194        -0.45537
C           3.15110         0.03537         0.06778
C           3.76952        -1.17869        -1.13659
C           5.15382        -0.91117        -0.84885
C           6.48719        -1.61316        -1.59486
C           7.71343        -1.44412        -1.41513
C           6.89999        -2.07754        -2.08792
C           8.66383        -2.13141        -2.14512
C           8.12233        -3.48831        -3.58641
C           9.59902        -2.93759        -3.00161
C           7.59709        -2.99104        -3.05935
C           5.09051        -2.12207        -2.12708
C           3.38366        -1.31968        -1.28867
C           9.68361        -3.35777        -3.44822
N          11.16946        -2.80214        -2.85752
H           0.40561        -0.54334        -0.56744
H           2.92801         0.62941         0.78776
H           5.11016        -0.22454        -0.11970
H           5.78665        -2.78300        -2.83775
H           7.27081        -0.89709        -0.83409
H           6.40200        -3.31625        -3.40361
H           9.60998        -1.79128        -1.78388
H           8.81808        -4.25973        -4.40581
H           1.96895        -0.48691        -0.40146
H          11.22365        -3.94387        -4.07035
H          11.65539        -2.03425        -2.04195

