%chk=C1dCCdC[SH]d[SH]c2ccccc2CdCCdC1.chk
%NProcShared=20
# opt freq b3lyp/6-31g(2df,p)

Title Card Required 

0  1
C           3.08403        -0.66759         0.99962
C           2.81091         0.17471        -0.02912
C           3.24206         1.45575         0.54984
C           4.51642         1.62796         0.59337
S           5.18568         2.51698         1.95473
S           6.91639         2.21847         1.48222
C           7.80940         2.99343         2.73178
C           7.63406         4.37318         2.83609
C           8.43786         5.15978         3.61663
C           9.41617         4.52484         4.35995
C           9.49379         3.06971         4.37382
C           8.59940         2.23386         3.56760
C           8.31142         0.61203         3.37685
C           7.38989        -0.26056         2.67555
C           5.95943        -0.89340         1.86901
C           4.61715        -1.10056         1.34305
H           2.17032        -0.64495         1.63540
H           3.26817         0.01931        -1.01643
H           2.59564         1.85799         1.35759
H           5.16890         0.94707        -0.00496
H           5.12601         1.68316         3.00210
H           7.36274         2.28659         0.25376
H           6.80295         4.80995         2.29603
H           8.26228         6.23195         3.60915
H          10.05544         5.18572         4.95933
H          10.25707         2.71047         5.07424
H           9.32875         0.20073         3.59610
H           8.00607        -0.35416         1.73354
H           6.51928        -1.74267         1.41676
H           4.51794        -2.00965         0.70842

