%chk=C1dCCdCCdCc2nn[nH]oc3cc2ccc3d1.chk
%NProcShared=20
# opt freq b3lyp/6-31g(2df,p)

Title Card Required 

0  1
C           8.09348        -2.36083        -2.39311
C           6.27412        -1.55838        -1.91027
C           4.39661        -1.54100        -1.12182
C           5.06386        -1.81232         0.03405
C           6.29304        -3.14552        -0.50957
C           8.06417        -3.09315        -0.30982
C          10.06093        -3.60576        -0.49495
N           8.87044        -4.21366        -1.27349
N           9.04005        -5.19781        -1.90341
N          10.24783        -5.05215        -2.03231
O          10.98621        -5.93720        -2.73369
C          11.30939        -4.65701        -2.65912
C          12.49748        -5.18495        -1.53239
C          11.88980        -3.90944        -0.97856
C          13.29703        -4.15404        -2.40183
C          11.82286        -3.75260        -3.26913
C           9.72347        -3.14901        -2.89944
H           5.11465        -0.58184        -1.33091
H           2.92078        -1.98090        -0.94597
H           5.32631        -0.50297         0.25394
H           5.08509        -3.36457        -1.36207
H           7.59080        -1.83843        -0.41379
H          10.69509        -3.64634        -1.87609
H          13.14152        -5.16987        -0.52834
H          14.80167        -4.79853        -2.60327
H          12.81592        -4.90638        -3.69144

