%chk=C1dCCdC2CdCCdCSC2dCCdC[SH]d1.chk
%NProcShared=20
# opt freq b3lyp/6-31g(2df,p)

Title Card Required 

0  1
C           2.40992        -0.45116         1.78203
C           2.80447        -0.01513         0.61269
C           3.87722         0.87751         0.92452
C           5.11687         0.33193         1.02930
C           5.74223        -0.23664        -0.09838
C           6.84583         0.42785        -0.54111
C           7.24898         1.77844        -0.15745
C           7.08387         2.56997         0.92544
S           6.35631         2.28567         2.44684
C           5.90318         0.62785         2.20454
C           5.81486        -0.21032         3.24565
C           5.01033         0.36290         4.27749
C           3.67156         0.16859         4.38429
S           2.15152        -0.44085         3.34799
H           2.60754        -0.38182        -0.39358
H           3.57448         1.52545         1.75898
H           5.36164        -1.14889        -0.52596
H           7.38568        -0.03118        -1.34839
H           7.77256         2.26486        -0.97292
H           7.44748         3.58774         0.86088
H           5.65372        -1.28860         3.24197
H           5.68663         0.82790         5.02649
H           3.58010        -0.24434         5.38503
H           1.39010         0.64940         3.23603

