%chk=C1dCCdCN2SNdCCdCC2dC[SH]d[SH]CdC1.chk
%NProcShared=20
# opt freq b3lyp/6-31g(2df,p)

Title Card Required 

0  1
C           1.33775        -0.34767        -0.31936
C           2.55420         0.02259         0.05506
C           3.53445        -1.06272        -0.29607
C           4.70348        -1.10160        -0.95131
N           5.18465        -2.11895        -1.83770
S           6.55772        -2.93290        -1.27486
N           7.86931        -2.29055        -2.07286
C           7.87921        -2.28149        -3.36151
C           6.90849        -2.79180        -4.35321
C           5.58691        -2.94476        -4.20780
C           4.64153        -2.57852        -3.11095
C           3.33819        -2.71786        -3.54046
S           2.01637        -2.40925        -2.43687
S           0.27666        -2.10547        -2.95748
C          -0.63315        -1.28550        -1.33465
C          -0.08433        -0.29435        -0.55077
H           1.36837        -1.40130        -0.50651
H           2.86349         0.98417         0.46564
H           3.05692        -2.04143        -0.29074
H           5.43093        -0.31211        -0.77942
H           8.79180        -1.87180        -3.83441
H           7.35906        -3.03791        -5.31471
H           5.11964        -3.39305        -5.08717
H           3.12914        -3.07440        -4.54515
H           2.31160        -1.12700        -2.40319
H          -0.14490        -3.35508        -2.89747
H          -1.66348        -1.61220        -1.17406
H          -0.65835         0.26472         0.19234

