%chk=C1dCCdC2[SH]dCSNdCCdCCdC2CdC1.chk
%NProcShared=20
# opt freq b3lyp/6-31g(2df,p)

Title Card Required 

0  1
C          -0.27399         1.50651        -0.00300
C          -1.41792         0.87300        -0.00908
C          -1.61091        -0.47755        -0.02832
C          -0.70997        -1.39149        -0.10807
S          -1.51831        -2.53819         0.73174
C          -3.02908        -2.97334         0.11862
S          -3.42431        -4.12173         1.27776
N          -5.04998        -4.08113         0.26317
C          -4.50188        -5.51880         0.38027
C          -5.71397        -5.25860        -0.33809
C          -3.92536        -5.36171        -0.62213
C          -1.84194        -4.32071        -0.57686
C          -0.51164        -2.94736        -0.37763
C           0.82320        -1.20991        -0.11680
C           0.91975         0.57211        -0.01954
H          -0.38259         2.60446         0.00403
H          -2.35267         1.35266        -0.00974
H          -2.59307        -0.81237        -0.00746
H          -0.69429        -3.67416         1.22336
H          -3.53748        -2.18137        -0.10399
H          -4.97937        -7.01796         0.09429
H          -7.21081        -4.87914        -0.01612
H          -5.53601        -5.94747        -0.42904
H          -0.41245        -4.22711        -0.20573
H           2.22014        -0.54985        -0.02227
H           1.76871         1.72482         0.00784

