%chk=Cc1ccccc2cqsc1rdCCCdCCdCCdNCd2.chk
%NProcShared=20
# opt freq b3lyp/6-31g(2df,p)

Title Card Required 

0  1
C           1.35732        -0.06566         0.02426
C           3.35892         0.05184        -0.02979
C           3.35105         1.32587        -0.61582
C           4.59985         1.72532        -0.79976
C           5.48732         2.87013        -1.32700
C           6.82917         3.44786        -1.59486
C           8.35424         4.60032        -2.12009
C           8.45516         2.74497        -1.26706
S           7.23026         0.77764        -0.36370
C           5.07645        -0.33511         0.14822
C           9.73178         3.58296        -1.65362
C          11.18261         4.07724        -1.88138
C          11.83789         5.24786        -2.41906
C          13.02091         5.71688        -2.63403
C          13.10555         7.19424        -3.37663
C          14.48197         7.13194        -3.61894
C          12.90321         7.64858        -3.33944
N          11.10607         7.24173        -3.25688
C           9.42630         6.02600        -2.77093
H           0.71757         0.88741        -0.41416
H           0.70605        -0.08287         0.99505
H           0.70605        -0.81401        -0.59434
H           2.55553         1.96888        -0.91166
H           5.31432         1.09563        -0.50994
H           4.63643         3.34646        -1.54518
H           6.81933         2.41222        -1.11575
H           4.22879        -1.37173         0.62505
H           9.93597         4.59991        -2.11887
H          11.51627         3.51328        -2.68813
H          11.51631         4.32263        -0.92838
H          11.15242         5.85026        -2.70753
H          13.83899         5.11475        -2.36005
H          12.07384         8.42174        -4.00138
H          15.39892         6.84941        -2.97075
H          13.77666         8.86502        -4.02332
H           8.27267         6.14388        -2.83101

