%chk=Cc1ccc2cqNrcc[nH]c1CdCCdNCdCNdCCdCCdC2.chk
%NProcShared=20
# opt freq b3lyp/6-31g(2df,p)

Title Card Required 

0  1
C           0.60587        -0.17310        -1.26355
C           0.26340        -0.41738        -3.69225
C           1.95877        -0.24609        -1.98923
C           3.91557        -0.18091        -1.34121
C           5.31713        -0.28929        -2.41878
C           6.72872        -0.28327        -2.35893
N           7.49805        -0.16421        -1.17521
C           7.19565        -0.41769        -3.69533
C           5.60022        -0.55119        -5.02260
N           2.96687        -0.62143        -5.72091
C           0.05329        -0.65036        -6.00847
C          -2.74949        -0.79947        -7.49098
C          -4.32166        -0.96970        -9.18343
C          -3.84810        -0.87986        -8.29023
N          -3.01004        -0.96049        -9.09185
C          -1.50414        -0.80078        -7.50396
C          -0.50517        -0.83659        -7.86000
N          -1.17805        -0.66708        -6.17470
C           1.11011        -0.67826        -6.28589
C           1.29152        -0.56312        -5.14117
C           2.20978        -0.50615        -4.57475
C           3.27818        -0.42964        -3.81412
C           4.51066        -0.40836        -3.60250
H           0.58082         0.01851         0.64144
H           0.56633        -1.00697        -0.38220
H           0.56633         0.81960        -0.56592
H           2.90292        -0.25188        -2.04681
H           5.07851        -0.07615        -0.29970
H           7.01737        -0.07575        -0.29573
H           8.50327        -0.16185        -1.15177
H           6.93866        -0.51859        -4.69842
H           7.51413        -0.44537        -3.97053
H           4.85360        -0.63536        -5.85935
H          -4.88421        -0.88001        -8.29169
H          -5.25500        -1.13812       -10.85782
H          -5.59122        -0.80407        -7.53669
H          -3.33617        -0.70218        -6.52365
H          -1.17663        -0.90968        -8.58664
H           1.06675        -0.77853        -7.28275
H           1.18466        -0.49550        -4.46892
H           2.19293        -0.68322        -6.33519
H           2.68841        -0.36826        -3.20384
H           4.58584        -0.49534        -4.46730

