%chk=CC1dCdc2cncqcc3cc-3nc2CCdOrdCNdC1.chk
%NProcShared=20
# opt freq b3lyp/6-31g(2df,p)

Title Card Required 

0  1
C           1.68445         0.09082         0.15880
C           3.23527         0.38081        -0.48517
C           2.71283         1.09348        -1.52159
C           2.97234         1.99475        -2.52030
C           3.68785         3.59252        -2.74089
N           4.91052         3.87067        -3.23020
C           5.94834         4.01806        -2.22859
C           5.84741         4.89681        -1.06845
C           5.27480         4.25829        -0.14337
C           4.96162         3.95667         1.12215
C           4.49835         3.04466         0.19418
N           4.13434         2.40043        -1.08664
C           4.32808         1.42966        -2.43682
C           3.53782        -0.04922        -3.43213
C           3.49723        -0.41129        -4.96182
O           2.84502        -1.37848        -5.40464
C           6.55354         2.80005        -1.98648
N           6.28946         1.58169        -0.89295
C           5.15161         0.73633        -0.28665
H           0.96137         0.58693        -0.59280
H           1.23031         0.55139         1.05468
H           1.27987        -0.92184        -0.00414
H           3.57286         4.13812        -1.80298
H           6.57560         5.68034        -0.77551
H           5.20673         4.41697         2.03720
H           2.39905        -0.03325        -3.35986
H           3.74682        -1.02916        -2.96816
H           3.99808         0.20678        -5.70625
H           7.18036         2.82726        -2.92191
H           5.53556         0.32932         0.67896

