%chk=CC1dNc2cc3cqNrccccc1c2dCNdCCd3.chk
%NProcShared=20
# opt freq b3lyp/6-31g(2df,p)

Title Card Required 

0  1
C           2.80845        -0.07255         0.08211
C           5.14173         0.26440        -0.20174
N           3.76957         0.68606        -0.62361
C           5.14293         0.32012        -0.25733
C           5.31368         1.56410        -1.43516
C           6.38452         2.11862        -1.95047
C           7.32089         2.81445        -2.59696
N           6.72128         3.60656        -3.33257
C           8.57533         2.93150        -2.70551
C           9.64011         3.49648        -3.23057
C          10.34221         2.54396        -2.34612
C           9.45594         1.12763        -1.03344
C           7.80325         0.34158        -0.29574
C           6.71554        -1.01536         0.98278
C           6.49841        -1.95867         1.83781
N           7.47277        -1.10807         1.04561
C           6.52730        -0.03628         0.02507
C           7.00677         1.39910        -1.27960
H           1.38162         0.54050        -0.48477
H           1.39159         0.13315         0.87021
H           1.38962        -0.84271        -0.17906
H           4.74243         2.23232        -2.05627
H           5.75102         3.55549        -3.28516
H           7.26598         4.19457        -3.87884
H           8.71282         2.24036        -2.06337
H           9.21701         4.24201        -3.92276
H          11.76268         2.75435        -2.54096
H          10.37780         2.10856        -1.94096
H           5.35692        -1.93786         1.81846
H           5.60499        -0.66314         0.59716
H           8.01715         1.40052        -1.27979

