%chk=CC1dc2occc2dCSNdC[SH]dCdCCdNNdC1.chk
%NProcShared=20
# opt freq b3lyp/6-31g(2df,p)

Title Card Required 

0  1
C           0.43580         0.43258        -0.15519
C           1.21084        -0.65024         0.44156
C           2.30635        -0.57637        -0.69407
O           3.89102        -0.42978        -0.74637
C           4.39790        -0.19619        -2.16011
C           3.38557        -0.12992        -3.04732
C           2.12255        -0.27481        -2.27837
C           0.97731        -0.23656        -3.01018
S          -0.49857        -1.01763        -2.51695
N          -1.79491         0.01870        -2.57270
C          -2.60602         0.10924        -1.56326
S          -4.35095         0.16074        -2.14563
C          -5.09626         0.51058        -0.77569
C          -5.52583         0.34978         0.43570
C          -5.07895        -1.02474         0.79217
N          -3.75199        -1.47664         0.86031
N          -2.13256        -0.82772         1.42588
C          -0.65347        -0.73661         1.31047
H           0.84109         0.94610        -0.99475
H           0.46497         1.16743         0.63171
H          -0.04598        -0.49830        -0.45963
H           5.45614        -0.15096        -2.50656
H           3.49380        -0.09540        -4.14065
H           1.05847        -0.02722        -4.07030
H          -2.34558         0.07551        -0.49229
H          -4.43999        -1.16878        -2.28230
H          -5.76087         1.04296         1.23790
H          -6.13165        -1.64872         0.46262
H          -0.40321        -0.23318         2.27125

