%chk=CC1dCC2dCCdCqSrCdCC2dCd[SH]1.chk
%NProcShared=20
# opt freq b3lyp/6-31g(2df,p)

Title Card Required 

0  1
C           1.08157        -0.13040         0.09246
C           2.56170        -0.29540         0.21835
C           3.23666        -0.54490         1.42643
C           4.64709        -0.66432         1.42393
C           5.33853         0.50656         1.27682
C           6.73533         0.73217         0.97302
C           7.75801        -0.16549         0.90321
S           9.39357         0.43033         0.70862
C           7.60792        -1.59627         1.05385
C           6.47261        -2.31083         0.96502
C           5.14352        -1.72819         0.67267
C           4.59380        -1.86649        -0.62770
S           3.64327        -0.38482        -1.21326
H           0.55414        -0.74021         0.83392
H           0.73753        -0.44727        -0.89660
H           0.77274         0.91336         0.23434
H           2.66570        -1.20275         2.09700
H           4.75197         1.41275         1.09559
H           6.95722         1.77565         0.77941
H           9.17341         1.75406         0.70308
H           8.53906        -2.14453         1.22245
H           6.52138        -3.38627         1.11984
H           3.12529        -0.15991        -2.39640

