%chk=CC1dCCdCCdCCdC2NdCCN3CdCSC23NdC1.chk
%NProcShared=20
# opt freq b3lyp/6-31g(2df,p)

Title Card Required 

0  1
C           2.10268         0.16199         0.21022
C           4.08784         0.47017         0.89411
C           3.47149        -0.50223         1.55568
C           4.55763        -1.25079         1.22638
C           5.19661        -1.47163         2.35083
C           6.54064        -1.74791         2.18289
C           7.26077        -1.90785         3.26137
C           8.62478        -2.01932         3.00625
C           9.19981        -2.09530         4.17308
N           8.74312        -2.53786         5.48074
C           9.56247        -3.07799         6.33392
C          10.94872        -2.87530         6.12086
N          10.99396        -1.73000         4.68225
C          12.68388        -2.15343         4.92149
C          13.29262        -1.84500         3.81370
S          11.57579        -1.98521         2.59916
C           9.67771        -0.72045         3.42970
N           7.92331        -0.02902         2.09685
C           6.29921         0.35189         1.35500
H           1.07320        -0.37779         0.98703
H           1.22092        -0.54679        -0.67598
H           1.09585         1.01553         0.02001
H           2.52724        -0.99080         1.85814
H           5.05683        -1.09227         0.20918
H           4.69423        -1.41175         3.28483
H           7.03619        -1.47839         1.17453
H           6.88977        -1.91272         4.26417
H           9.19686        -1.53059         1.93035
H           9.28823        -3.62254         7.27354
H          11.48216        -3.96971         6.22772
H          11.40559        -2.41622         7.07028
H          13.42739        -2.73751         5.88354
H          14.45845        -1.59418         3.83686
H           5.98809         0.66022        -0.03708

