%chk=Cc1dc-cdc-ndc2-ndc3-ndc-2-cdc-3-c2cc-2dc-1.chk
%NProcShared=20
# opt freq b3lyp/6-31g(2df,p)

Title Card Required 

0  2
C           2.26973         0.97693         0.13783
C           3.83554         2.17689         0.22779
C           3.86957         2.40383        -1.06317
C           5.05950         2.48939        -1.91141
C           5.93746         1.81891        -1.39844
N           7.02482         1.41280        -0.54524
C           7.81127         2.44681        -0.43157
N           7.27513         3.39970        -1.05403
C           8.51832         3.42616        -1.03929
N           9.56238         2.22921        -0.60471
C           9.57617         3.32417        -0.04132
C          10.12458         4.47851        -0.92481
C           8.93791         4.71411        -1.40030
C           7.57394         5.56772        -0.98024
C           8.06403         5.90918         0.17727
C           6.34111         5.01532         0.17837
C           5.25980         3.78395         0.31758
H           1.20148         1.36544        -0.14864
H           1.58793         0.09935         0.92863
H           1.75409        -0.06616        -0.68034
H           9.32236         6.32632        -0.42552

