%chk=CC1dCCdCSCqNrdCCdCCdCSNdN1.chk
%NProcShared=20
# opt freq b3lyp/6-31g(2df,p)

Title Card Required 

0  1
C           2.88341        -0.40520        -0.61810
C           4.94782        -1.13563        -1.80916
C           3.46219        -0.80307        -1.26688
C           5.11848        -0.58769        -0.91566
C           6.44540        -1.09224        -1.73843
S           8.27817        -1.17246        -1.86923
C           7.75344        -2.48740        -4.01345
N           6.70077        -2.81487        -4.54743
C           8.54372        -1.72633        -2.77241
C           8.62835        -2.97301        -4.80531
C           9.87828        -3.03650        -4.90885
C          11.28138        -3.85269        -6.23976
C          12.88609        -3.89271        -6.30503
S          11.37899        -3.27230        -5.29335
N           9.24022        -2.31519        -3.73264
N           6.98326        -1.83935        -2.95670
H           1.19957        -0.55227        -0.85791
H           1.50948         0.61517        -0.20478
H           1.50948        -0.49945         0.47876
H           2.74145        -1.20691        -1.92540
H           5.54944        -0.06830        -0.06873
H           5.23455        -1.80298        -2.89739
H           5.89191        -2.60127        -4.19913
H           7.16885        -3.24550        -5.24964
H          10.04115        -1.69973        -2.72903
H           8.80588        -3.57376        -5.78493
H          11.40139        -2.52294        -4.07140
H          10.78456        -4.38303        -7.10457
H          13.70779        -3.53984        -5.72961

