%chk=CC1dCCdCCdCCdCCdNNCdCdNCdC1.chk
%NProcShared=20
# opt freq b3lyp/6-31g(2df,p)

Title Card Required 

0  1
C           3.92562         0.30459        -0.95569
C           6.03237         0.22594        -1.89105
C           4.43385        -0.32896        -1.77985
C           5.17210        -1.19758        -0.89987
C           5.48099        -1.90087        -2.01903
C           6.88993        -1.89642        -2.04065
C           7.62966        -2.19835        -3.10254
C           9.07324        -2.33474        -3.01753
C           9.76086        -2.70740        -4.09799
C          11.17830        -3.00163        -4.00240
N          11.77017        -3.40302        -5.10057
N          13.20695        -3.66142        -4.78762
C          13.89836        -3.11875        -5.79732
C          13.04558        -1.79760        -5.02274
N          11.94950        -1.10013        -4.04072
C          10.11904        -0.45513        -3.19723
C           8.24053        -0.10412        -2.54785
H           2.38419        -0.23389        -1.06531
H           2.49973         0.80876        -0.55020
H           2.73228        -0.23571         0.00134
H           3.15886        -1.04688        -1.95607
H           5.41999        -0.38036         0.06193
H           4.84692        -1.74612        -2.98290
H           7.23740        -1.37792        -1.06217
H           7.06464        -2.31941        -3.98984
H           9.68127        -1.79795        -2.11730
H           9.25182        -2.93078        -4.98378
H          11.77441        -2.51889        -2.96453
H          13.69155        -3.03045        -3.92045
H          13.64889        -4.01082        -6.80711
H          11.36452        -0.78873        -4.11914
H           7.95507         0.19572        -1.38209

