%chk=CCC1dCCdCCdCCdCCdCdNSSS1.chk
%NProcShared=20
# opt freq b3lyp/6-31g(2df,p)

Title Card Required 

0  1
C           1.57395        -0.41877        -0.35705
C           3.44256        -0.62482        -0.82513
C           4.99071        -1.36788        -2.03416
C           5.10676        -1.85191        -0.76744
C           5.13631        -3.25380        -0.81429
C           6.39626        -3.66385        -0.72052
C           6.72257        -4.78748        -1.58994
C           7.97141        -5.05721        -1.91710
C           8.33419        -6.07874        -2.88901
C           9.57944        -6.51471        -2.84439
C          10.24348        -7.52572        -3.63879
C          11.51215        -7.34576        -3.79564
N          12.33234        -6.51413        -3.81349
S          11.56262        -4.64560        -3.23252
S           9.41647        -3.13184        -3.42002
S           6.87762        -2.18849        -2.91826
H           1.26080         0.54732         0.25835
H           1.04349        -1.10780         0.38928
H           0.86629        -0.25288        -1.18562
H           3.59479        -0.63030         0.32771
H           3.48220         0.44125        -1.00658
H           5.43743        -1.01791        -0.12558
H           4.47632        -3.74758        -1.56156
H           7.07737        -2.76306        -0.57586
H           6.02309        -5.21137        -2.30598
H           8.65559        -4.28672        -1.53287
H           7.64884        -6.59617        -3.53528
H          10.09785        -5.95952        -2.05944
H           9.67248        -8.17305        -4.26962

