%chk=CCCqC[SH]dSrd[SH]C1dCCdCC1dS.chk
%NProcShared=20
# opt freq b3lyp/6-31g(2df,p)

Title Card Required 

0  1
C           1.15470        -0.15675        -0.36792
C           2.60735         0.08752        -0.06011
C           2.95144         1.02430         1.09129
C           2.01022         1.73962         2.05271
S           0.22026         1.54955         1.79382
S          -0.68505         2.59202         3.18562
S           4.77966         1.15103         1.29331
C           4.90160         2.23030         2.64801
C           4.80909         3.56504         2.63747
C           4.96895         4.08904         3.96579
C           5.21379         3.10417         4.84406
C           5.21410         1.85649         4.05166
S           5.50259         0.33239         4.67239
H           0.99013        -0.79998        -1.23197
H           0.65997         0.79212        -0.59382
H           0.69141        -0.66624         0.48202
H           3.09254         0.47597        -0.96470
H           3.07392        -0.88303         0.15423
H           2.20804         2.81126         1.95958
H           2.24000         1.41507         3.07268
H           0.03745         0.31860         2.22613
H           5.08708         1.89774         0.25468
H           4.61381         4.19577         1.78144
H           4.88787         5.13313         4.22419
H           5.37010         3.16738         5.90378

