%chk=CdC1CdCCdC2CdCCdCd[SH]S2dN1.chk
%NProcShared=20
# opt freq b3lyp/6-31g(2df,p)

Title Card Required 

0  1
C           1.06657        -0.14576        -0.01102
C           2.42151        -0.15102         0.14742
C           2.94523         1.20896         0.08020
C           4.22521         1.61923         0.02405
C           5.37151         0.83385        -0.22725
C           5.48619        -0.47602        -0.51377
C           6.75756        -1.03297        -1.01778
C           7.89055        -0.70604        -0.35346
C           8.16264        -1.66396         0.73238
C           7.07103        -2.09476         1.34761
S           5.54106        -2.54411         1.65943
S           4.37584        -1.75690         0.05198
N           3.20730        -1.10027         0.75496
H           0.50281         0.76723        -0.21217
H           0.46084        -1.03099         0.12234
H           2.22395         2.01790         0.07568
H           4.40459         2.68467         0.02123
H           6.26039         1.44711        -0.28441
H           6.62562        -2.11985        -1.16486
H           8.07081         0.33092        -0.07444
H           8.96818        -2.34154         0.43847
H           5.13988        -1.80912         2.67645

