%chk=CdC1CdC2CdCCdCCdC2CdCCdCSS1.chk
%NProcShared=20
# opt freq b3lyp/6-31g(2df,p)

Title Card Required 

0  1
C           0.60487         0.17765         0.13220
C           1.88226        -0.17724         0.41332
C           3.00091         0.63123        -0.62814
C           4.39660         0.79508        -0.79395
C           5.03403         1.75185        -1.81338
C           6.34876         2.00496        -2.07034
C           7.57526         1.48413        -1.50115
C           7.69200         0.59977        -0.52590
C           6.63932        -0.01192         0.15015
C           5.31024         0.03457         0.07216
C           4.78703        -0.79888         1.06014
C           5.29611        -1.60992         1.99351
C           4.24945        -2.03637         2.75846
C           3.87653        -3.06859         3.50522
S           2.06986        -2.96042         3.35512
S           1.77026        -2.12628         1.06292
H           0.33037         0.89582        -0.63663
H          -0.20567        -0.38292         0.58220
H           2.43351         1.29887        -1.30327
H           4.35635         2.34096        -2.43657
H           6.61239         2.73106        -2.84668
H           8.52829         1.83458        -1.88907
H           8.65578         0.26192        -0.15184
H           7.08084        -0.66424         0.89038
H           3.74231        -0.70414         1.02730
H           6.31115        -1.88290         2.15872
H           3.44128        -1.32564         2.70422
H           4.63122        -3.74127         3.93567

