%chk=CdC1Cdc2ccc3c4c2dCC2q[SH]dC2SCrC1dC34.chk
%NProcShared=20
# opt freq b3lyp/6-31g(2df,p)

Title Card Required 

0  1
C           1.88993        -0.04255        -0.57978
C           3.20083         0.42535        -0.58435
C           3.30787         1.10037         0.70188
C           4.37980         0.69682         1.37278
C           5.21747         1.81356         1.90009
C           6.52315         1.79607         1.55995
C           6.91977         0.90930         0.46116
C           6.38272        -0.35498         0.42348
C           5.06284        -0.70060         0.92487
C           4.50678        -1.59100        -0.05853
C           5.07733        -1.44094        -1.48609
S           5.00304        -3.06504        -2.07819
C           4.49244        -1.55087        -2.98751
S           5.67824        -0.27623        -3.82502
C           4.92337         0.57718        -5.22350
C           4.82545         0.08514        -1.31555
C           6.16349         0.42236        -0.80119
H           1.19024         0.35580         0.20088
H           1.28255        -0.81775        -1.05237
H           2.52027         1.67386         1.20063
H           4.77064         2.57925         2.52536
H           7.23627         2.41987         2.12831
H           3.45839        -1.77390        -0.33876
H           4.05493        -3.47491        -1.18204
H           5.23467         1.63494        -5.37548
H           3.83574         0.55055        -5.29242
H           5.38497         0.02967        -6.04189

