%chk=Cdc1cc2cqdNrccc1dCCdCCdCCdC1CdCCdCN1C2.chk
%NProcShared=20
# opt freq b3lyp/6-31g(2df,p)

Title Card Required 

0  1
C           1.71595         1.74091        -0.36851
C           2.82450         2.65366        -0.71687
C           3.26978         1.17847        -1.14736
C           4.47870         0.62471        -1.10043
C           5.19226         1.50497        -1.98326
N           4.71670         2.12205        -3.04765
C           6.32012         2.05290        -1.24010
C           5.94823         3.31177        -1.44231
C           4.28388         3.70605        -1.17206
C           4.48004         5.02916        -0.77207
C           4.19329         5.19829         0.64454
C           4.66642         4.13261         1.32415
C           3.69876         3.15536         1.81120
C           3.98745         1.84736         1.71532
C           3.09683         0.71689         1.89100
C           3.30230        -0.56930         1.50977
C           2.32993        -1.55459         2.00597
C           2.56835        -2.87411         1.91252
C           3.73726        -3.35793         1.21422
C           4.53954        -2.46633         0.62275
N           4.33599        -1.08961         0.69008
C           5.22602        -0.23064        -0.08796
H           1.63671         0.55274        -0.31397
H           0.67615         1.82496        -0.00344
H           2.75810         1.22381        -2.12942
H           3.75593         2.48935        -2.84178
H           7.25231         1.52084        -1.18733
H           6.74233         3.83287        -2.03355
H           5.40817         5.63553        -0.98658
H           3.27086         5.71325         0.86027
H           5.55062         3.64655         0.87413
H           2.65206         3.44907         1.79903
H           4.90545         1.66589         1.18931
H           2.11203         0.98770         2.26783
H           1.45354        -1.19496         2.53447
H           1.90402        -3.59241         2.37445
H           3.94104        -4.41821         1.15802
H           5.41738        -2.77661         0.06146
H           5.93701        -0.82075        -0.68082
H           5.89787         0.25088         0.63729

