%chk=CdC1CdCCdCC1d[SH]SCd[SH]SCdS.chk
%NProcShared=20
# opt freq b3lyp/6-31g(2df,p)

Title Card Required 

0  1
C           0.87413        -0.43732         0.07689
C           2.18081        -0.17151         0.08148
C           3.04417        -1.34455         0.07388
C           4.37239        -1.25748         0.07073
C           5.02880         0.02525         0.06663
C           4.34872         1.18372         0.06764
C           2.84442         1.18904         0.09055
S           2.05786         2.85138         0.16980
S           0.07050         2.56647         0.01418
C          -0.78783         4.04161         0.08674
S          -2.57340         3.75758        -0.00924
S          -3.19912         5.66132         0.22768
C          -4.95191         5.58826         0.14447
S          -5.85867         6.99777         0.13188
H           0.47286        -1.44309         0.06782
H           0.08762         0.28114         0.07941
H           2.56630        -2.32165         0.07222
H           4.97473        -2.16201         0.06878
H           6.11525         0.01261         0.06540
H           4.88005         2.12972         0.06790
H           2.34125         3.27799        -1.04348
H          -0.31908         5.02992         0.13329
H          -2.83138         3.21739         1.16848
H          -5.43142         4.59625         0.10918

