%chk=Cdc1cqdOrn2cccncc3c1cc2dNCdNCdCCdC3.chk
%NProcShared=20
# opt freq b3lyp/6-31g(2df,p)

Title Card Required 

0  1
C           0.73040         0.28153         0.18650
C           2.08987         0.23162         0.27645
C           2.54072         1.53582         0.14825
O           2.08814         2.64833         0.06435
N           2.56885         0.27759        -0.87671
C           3.94743         1.57625        -0.28840
C           5.20733         1.96090         0.67951
C           6.39410         3.36638         0.11605
N           7.34430         2.54505        -0.28828
C           6.31882         1.00442        -0.55355
C           4.81452        -0.27731         0.21374
C           3.52196        -1.10192        -0.13958
C           3.51361        -2.41836        -0.70207
C           1.62306        -1.61106        -0.93947
N          -0.04925        -2.52389        -0.82943
C          -1.55302        -3.94695        -0.73480
N          -2.81921        -4.32565         0.08125
C          -1.19795        -4.94563         0.42507
C           0.02321        -3.81083         0.63234
C           1.85024        -2.92667         0.66350
C           3.13458        -1.37859         0.83517
H           0.31236         1.20519         0.04548
H           0.10621        -0.52736         0.01075
H           4.19625         2.98330        -0.07630
H           6.09207         0.70430         0.96140
H           6.55275         4.55546         0.08028
H           7.46597         1.95650         0.07980
H           4.85160        -2.19832        -0.08969
H          -2.51272        -5.34582        -0.34936
H          -1.21384        -6.08476         0.04936
H          -1.14360        -2.90446         0.50802
H           1.37021        -4.24200         0.11276
H           1.55534        -1.36973         0.86249

