%chk=CdCC1dCc2cc3cqcc2dCdCdCCdC1rCd3.chk
%NProcShared=20
# opt freq b3lyp/6-31g(2df,p)

Title Card Required 

0  1
C           1.27622         0.01010        -0.08014
C           2.60579        -0.24121        -0.11895
C           3.69101         0.04725        -1.11143
C           4.62281         0.95695        -0.74244
C           5.30218         1.79384        -1.74546
C           4.76488         3.01346        -1.93775
C           5.09205         3.58395        -3.15557
C           6.07552         3.46359        -4.19866
C           6.72318         2.32995        -3.86423
C           6.40276         1.45152        -2.71226
C           7.10572         0.38877        -2.51944
C           7.23295        -0.77622        -2.20843
C           6.58811        -1.83833        -1.86733
C           5.17343        -1.82138        -2.37410
C           4.16087        -0.89136        -2.19865
C           5.02489         4.45426        -4.08019
H           0.68663        -0.35854         0.77302
H           0.66286         0.54937        -0.79976
H           2.99712        -0.66644         0.80030
H           5.31092         0.51262        -0.02293
H           4.01563         3.48507        -1.32529
H           7.58258         1.97755        -4.43171
H           7.17263        -2.72498        -1.59642
H           5.22754        -2.38277        -3.31673
H           3.78708        -0.40723        -3.11687
H           4.52271         5.38786        -4.01750

