%chk=CdCC1dCCdCSSCCCdCNCSS1.chk
%NProcShared=20
# opt freq b3lyp/6-31g(2df,p)

Title Card Required 

0  1
C           2.25252        -0.87957         0.59472
C           3.92486        -1.72481         1.13775
C           5.59691        -3.00332         1.95915
C           4.98061        -1.59868         1.05672
C           5.73178        -2.55050         1.66822
C           6.89906        -1.86130         1.22544
S           8.24482        -2.43263         1.59250
S          10.02983        -2.61102         1.70710
C          10.11957        -4.01650         2.61008
C          11.83151        -3.79361         2.46682
C          12.47396        -4.74700         3.08000
C          13.37005        -5.52492         3.58268
N          13.48616        -7.07887         4.57914
C          13.48737        -5.95153         3.84877
S          10.55709        -5.79082         3.74962
S           7.81014        -4.44777         2.88705
H           1.22401         0.19536        -0.09589
H           0.75674        -0.91192         0.61550
H           3.48754        -0.39297         0.28209
H           5.14849        -0.48307         0.33998
H           4.33441        -3.39617         2.21154
H           7.13022        -1.06345         0.71285
H           9.93241        -5.28546         2.10911
H           9.93242        -4.08838         3.97245
H          12.21809        -3.20447         3.27190
H          12.21810        -4.28092         1.59643
H          11.54670        -4.67272         3.03162
H          14.54004        -4.70134         3.05008
H          14.43853        -7.53751         4.87220
H          15.05633        -5.67827         4.35841
H          15.05680        -6.29773         3.39426

