%chk=CdCCqOCrd[PH]dC1Cd[SH]C1.chk
%NProcShared=20
# opt freq b3lyp/6-31g(2df,p)

Title Card Required 

0  2
C           0.98915        -0.16413         0.04955
C           2.31055         0.05534        -0.09438
C           3.06050         1.12703        -0.79793
O           2.45329         2.13302        -1.45792
C           1.03103         2.30593        -1.57174
P           4.69835         1.12703        -0.79793
C           6.33620         1.12703        -0.79793
C           7.32397         0.05389        -0.77869
S           8.73957         1.08127        -0.69831
C           7.32632         2.29092        -0.83610
H           0.62606        -1.01842         0.61071
H           0.19424         0.44265        -0.34889
H           2.94528        -0.68447         0.39187
H           0.82066         3.20176        -2.15989
H           0.59221         2.46215        -0.58104
H           0.59248         1.45898        -2.10916
H           7.08464        -1.01126        -0.82308
H           9.13546         1.04885        -1.95290
H           7.33440         2.85517        -1.77264
H           7.26927         2.97619         0.01335

