%chk=CdCd[SH]C1dCCdCCdCc2c1c2dS.chk
%NProcShared=20
# opt freq b3lyp/6-31g(2df,p)

Title Card Required 

0  1
C           1.24400        -0.14659        -0.10579
C           2.54425        -0.17308        -0.17014
S           4.11676         0.07282        -0.22202
C           4.79672        -1.39717        -1.09622
C           4.21326        -2.60814        -0.92017
C           4.78723        -3.85839        -1.39093
C           5.92977        -4.36903        -0.89947
C           6.65673        -3.76820         0.20718
C           7.13674        -2.51362         0.19416
C           7.03785        -1.64225        -0.89932
C           6.12693        -1.06835        -1.64760
C           7.55336        -1.57664        -2.22053
S           9.21111        -1.83014        -2.05271
H           0.69983         0.71607        -0.48397
H           0.66096        -0.91571         0.38802
H           4.41349        -0.21414         1.03100
H           3.31081        -2.74233        -0.31969
H           4.25383        -4.36663        -2.19228
H           6.36160        -5.26526        -1.34167
H           6.78014        -4.36522         1.10315
H           7.67028        -2.07853         1.02772

