%chk=CdCdCSCdCqC[SH]d[SH]OrSSSC.chk
%NProcShared=20
# opt freq b3lyp/6-31g(2df,p)

Title Card Required 

0  1
C           1.08601         0.03255         0.02300
C           2.39338        -0.08348         0.06489
C           3.69549        -0.16283         0.09295
S           4.52907         1.22966        -0.39198
C           6.27062         1.15349        -0.39682
C           7.08642         2.19798        -0.78848
C           6.67173         3.60711        -1.31394
S           4.88223         3.83286        -1.53257
S           4.37818         5.54765        -1.88437
O           2.78499         5.27354        -1.95484
S           8.87899         1.87384        -0.66963
S           9.91797         3.58446        -1.31293
S          11.95301         3.13787        -1.14545
C          12.87090         4.63160        -1.70793
H           0.52726        -0.16107        -0.88761
H           0.51312         0.30471         0.90337
H           4.19227        -1.05910         0.42796
H           6.71230         0.22080        -0.05500
H           7.10009         3.75493        -2.31044
H           7.04552         4.37889        -0.63288
H           4.48248         3.64835        -0.28591
H           4.63750         5.52153        -3.17322
H           2.39664         5.04347        -1.07429
H          13.95263         4.44277        -1.63700
H          12.65999         5.49906        -1.07589
H          12.65978         4.86740        -2.75497

