%chk=CdNc1cc2ccc1NdCCdC2SC.chk
%NProcShared=20
# opt freq b3lyp/6-31g(2df,p)

Title Card Required 

0  1
C           1.33373        -0.24854         0.30789
N           2.47907        -0.51919         0.85020
C           2.74056        -1.89587         1.19129
C           2.65433        -2.72463         0.09533
C           3.63840        -3.69028        -0.00033
C           4.92478        -3.29594         0.52819
C           4.93996        -2.30168         1.50795
C           3.72020        -2.33703         2.12085
N           3.59182        -3.64812         2.91011
C           4.00303        -4.81869         2.44293
C           3.34190        -5.68093         1.39356
C           3.02888        -5.04677         0.22310
S           1.54437        -5.38987        -0.65161
C           1.01807        -7.06214        -0.30088
H           1.11776         0.73301        -0.16162
H           0.51036        -0.98287         0.24927
H           1.96018        -2.58610        -0.71952
H           5.75959        -3.99434         0.62482
H           5.82130        -2.09918         2.11433
H           4.99985        -5.23495         2.73475
H           3.01064        -6.66964         1.65127
H           0.12164        -7.26096        -0.90104
H           0.75497        -7.25465         0.74435
H           1.80438        -7.73899        -0.62885

