%chk=CN1CdCCdNNdCNdc2ncccc2dNNS1.chk
%NProcShared=20
# opt freq b3lyp/6-31g(2df,p)

Title Card Required 

0  1
C           2.27891        -0.40883         0.07613
N           3.98944        -0.14879        -0.47641
C           3.71379         0.52198        -1.60457
C           4.69756         1.41586        -1.83728
C           5.24253         1.36586        -3.12665
N           6.50890         1.46207        -3.02584
N           7.15406         1.42505        -4.17449
C           8.31961         1.83765        -3.87613
N           9.14663         1.95824        -4.89759
C          10.28891         1.49579        -4.59249
N          11.16850         1.77859        -5.66638
C          12.41478         2.03816        -5.50969
C          13.00925         1.94228        -4.16986
C          12.31350         1.31637        -3.12459
C          10.53341         0.81582        -2.99698
N           9.56385         0.24598        -1.87717
N           7.75233        -0.04071        -1.72417
S           6.10933        -0.74697        -0.48111
H           1.58951         0.01445        -0.77123
H           1.79218         0.35586         0.76968
H           1.71735        -1.37488         0.11003
H           2.77054         0.48037        -2.12412
H           5.39742         1.45251        -1.02013
H           4.65745         1.25030        -4.03031
H           8.67711         2.06968        -2.84440
H          13.10337         2.26836        -6.39358
H          14.04356         2.36665        -4.20419
H          12.97846         1.17592        -2.27942
H           7.46011        -0.28625        -2.66482

