%chk=CNC1dCOCC2dCCdCCdCC3dCqC3rSCdCC2dC1.chk
%NProcShared=20
# opt freq b3lyp/6-31g(2df,p)

Title Card Required 

0  1
C           1.09164        -0.07869        -0.13262
N           2.81444        -0.23524        -0.21334
C           3.90130        -0.83566        -1.50619
C           2.91082        -0.84955        -2.43515
O           2.96200        -1.55086        -3.58754
C           4.17766        -2.43154        -3.84820
C           5.66620        -1.63133        -3.64031
C           6.45150        -0.63934        -4.10608
C           6.50380        -0.86505        -5.49187
C           7.49581        -0.24974        -6.10810
C           7.63478        -0.65260        -7.42654
C           8.50677         0.14157        -7.99315
C           8.62218        -0.28690        -9.28957
C           9.72289        -0.13806        -9.88471
C           8.27801        -0.97877       -10.43109
S          10.49142        -1.49106        -8.32286
C           9.62798        -1.53468        -6.14468
C           8.47113        -1.91233        -4.78589
C           7.03610        -1.93841        -3.15799
C           5.72006        -1.52836        -1.97717
H           0.68113         0.61077         0.67750
H           0.62509        -1.04850         0.09676
H           0.61640         0.31773        -1.04342
H           3.08162         0.46914         0.49969
H           2.02721        -0.11725        -2.38238
H           4.11038        -2.61299        -4.91738
H           3.92386        -3.46523        -3.44326
H           7.51809        -0.18985        -3.42277
H           6.01392        -1.78150        -5.87584
H           8.45552         0.18414        -5.56630
H           7.15668        -1.46944        -7.96118
H           9.36734         0.62091        -7.31675
H           8.25368        -2.07697       -10.39249
H           7.22023        -0.75653       -10.59581
H          10.31958        -0.69495        -7.13054
H           8.87748        -1.78444        -3.73175
H           5.25504        -1.85291        -0.78956

