%chk=CNC1CdCdC2CdC2CdCCdC1[SH]dN.chk
%NProcShared=20
# opt freq b3lyp/6-31g(2df,p)

Title Card Required 

0  1
C           1.22478         0.02260         0.08920
N           2.74779         0.05670         0.22214
C           3.63594         0.33571        -1.00191
C           4.67445        -0.65251        -1.33557
C           5.05742        -0.43330        -2.55768
C           5.38026         0.48312        -3.48392
C           5.69601         0.53347        -4.73420
C           6.78633         0.43843        -4.07588
C           7.65017         0.29258        -2.88500
C           7.75963         1.42658        -2.18755
C           6.30508         2.07254        -1.34974
C           4.71023         1.75304        -1.19350
S           2.92281         2.94267        -1.43759
N           1.83414         3.01024        -2.46994
H           0.78602        -0.20214         1.08397
H           0.83211        -0.77880        -0.56058
H           0.68515         0.94266        -0.17677
H           2.94801        -0.91026         0.45449
H           2.93942         0.17222        -1.84935
H           5.33401        -0.46119        -0.46860
H           5.02486         0.65139        -5.58851
H           7.21400        -0.36654        -2.12720
H           8.85243         1.74021        -2.39340
H           7.03797         1.65028        -0.51594
H           2.05784         1.98297        -0.94172
H           1.42250         3.46224        -3.31748

