%chk=CNdc1cccccc2cccccc-2s1.chk
%NProcShared=20
# opt freq b3lyp/6-31g(2df,p)

Title Card Required 

0  1
C           1.37552         0.35620        -0.03997
N           3.20490         1.37801        -0.21957
C           4.42508         2.79885        -0.47061
C           4.72138         1.21531        -0.19098
C           5.48576         2.26041        -0.37414
C           6.84268         2.17485        -0.35910
C           7.80480         3.02714        -0.50812
C           9.02571         3.35806        -0.56680
C           9.61762         4.46891        -0.76015
C          10.77859         3.94960        -0.67080
C          10.85561         5.17192        -0.88510
C          12.63162         5.48048        -0.94938
C          13.00831         6.98300        -1.16742
C          10.99143         6.71285        -1.14094
C           8.99098         5.80291        -0.99829
S           6.52075         4.64609        -0.79327
H           0.71900        -0.94722         0.18831
H           0.61863         0.39070        -0.94812
H           0.61862         0.69756         0.80169
H           5.05996         0.19113        -0.01135
H           5.44104         3.55548        -0.60046
H           7.21674         1.27259        -0.20097
H           8.07633         4.35813        -0.74172
H           9.43230         2.48419        -0.41361
H          11.72347         3.68820        -0.62429
H           9.82030         6.70017        -1.15428
H          13.62852         5.02196        -0.85736
H          13.20880         8.24082        -1.43661
H          12.64479         6.91974        -1.21292

