%chk=CNdCC1dCCdCCd[C]SCNS1dN.chk
%NProcShared=20
# opt freq b3lyp/6-31g(2df,p)

Title Card Required 

0  2
C           1.32534        -0.14559         0.09875
N           3.01263        -0.10920         0.00557
C           3.91990        -1.15399        -0.01155
C           5.78978        -1.35701        -0.33027
C           5.44245        -2.62571         0.11992
C           6.53751        -3.15954         0.73847
C           7.24077        -4.25891         0.76228
C           8.49080        -3.94243         1.34623
C           9.45798        -4.66594         1.72930
S          11.09777        -4.30730         1.67536
C          10.59513        -4.91255        -0.01298
N           9.82704        -3.20886        -0.58822
S           8.10759        -1.82372        -0.69510
N           8.05232        -0.25552        -0.14475
H           0.87261         0.88790        -0.00523
H           0.84400        -0.49428         1.04355
H           0.82383        -0.67674        -0.73902
H           3.28493        -2.04282         0.21827
H           4.55348        -3.16518         0.43302
H           7.01780        -2.28953         1.17992
H           6.81485        -5.17036         0.45008
H           8.93995        -2.91709         1.24023
H          11.29369        -5.80960        -0.54544
H          11.12428        -5.69675         0.91102
H          10.89815        -2.95501        -0.42058
H           7.01594         0.30279        -0.12607

