%chk=COC1dCC2dCqC2C[SH]dOr[SH]2CdNNdC2NdCCdC1.chk
%NProcShared=20
# opt freq b3lyp/6-31g(2df,p)

Title Card Required 

0  1
C           1.60528        -0.11191         0.37200
O           3.15942        -0.60780         0.69728
C           4.38526         0.13609         1.32122
C           4.67710         1.26992         0.68418
C           5.09998         2.42180         1.55845
C           6.01143         2.16843         2.37615
C           4.54302         2.62871         2.84295
C           3.07414         2.25615         2.86374
S           2.14131         3.13886         4.18369
O           0.68115         3.03478         3.84913
S           7.08374         2.71159         3.59612
C           7.25093         4.34294         3.21582
N           8.41888         4.66807         2.78176
N           9.34556         3.56887         2.86904
C           8.73941         2.52536         3.33166
N           9.25241         1.32908         3.65606
C           8.98719         0.56531         2.64006
C           7.42163        -0.16090         2.05854
C           5.91448        -0.42104         2.12967
H           1.18555        -0.68395        -0.50062
H           1.31968         0.94464         0.11562
H           0.93812        -0.44392         1.19374
H           5.38908         0.88935        -0.06502
H           4.76298         3.22542         3.71877
H           2.81430         1.20919         3.04517
H           2.60018         2.57989         1.92421
H           2.35116         4.39959         3.87215
H           6.89865         2.16652         4.80102
H           6.33915         4.93166         3.27726
H           9.86054         0.66505         1.91624
H           7.92696        -1.03536         2.56752
H           5.51322        -0.04109         3.09670

