%chk=COC1dNC2dCCdCC1dC1SCdCS[SH]2S1.chk
%NProcShared=20
# opt freq b3lyp/6-31g(2df,p)

Title Card Required 

0  1
C           1.06692        -0.06766        -0.17862
O           2.43785         0.10679        -0.65544
C           2.80744        -0.04770        -1.98147
N           3.97783         0.33387        -2.45949
C           4.41992        -0.25552        -3.74212
C           4.82914        -1.44969        -4.00439
C           4.53107        -2.43915        -3.01654
C           3.32097        -2.33032        -2.39422
C           2.12948        -1.12796        -2.71870
C           1.39281        -0.82485        -3.91238
S           0.43076         0.67563        -4.92518
C           1.51102         1.39906        -6.53475
C           2.54165         2.24685        -6.30601
S           3.13487         2.10275        -4.74854
S           3.55961         0.09255        -5.17280
S           2.03615        -1.58462        -5.28054
H           0.97130         0.32876         0.84689
H           0.72961        -1.11419        -0.13568
H           0.41332         0.52484        -0.81707
H           4.87187        -1.88864        -5.03023
H           5.46343        -2.93699        -2.73859
H           3.55891        -2.52177        -1.32450
H           1.25676         1.29443        -7.60969
H           3.21544         2.75857        -7.00724
H           3.95582        -0.14543        -6.42317

