%chk=COC1dCCdCCdCCdCqNdOrNCSSCdC1.chk
%NProcShared=20
# opt freq b3lyp/6-31g(2df,p)

Title Card Required 

0  1
C           1.99276        -0.65925         0.16024
O           3.94275        -2.00773         0.63619
C           5.83502        -3.54648         1.17930
C           4.84606        -1.81196         0.56709
C           5.61163        -2.61190         0.84943
C           6.91245        -2.23749         0.71729
C           7.60762        -3.29127         1.08922
C           8.78681        -3.53449         1.17507
C           9.58493        -4.46163         1.50232
C          10.84922        -4.62006         1.55823
N          11.55797        -3.70875         1.23657
O          10.95740        -2.71577         0.88610
N          11.34944        -5.58842         1.90000
C          12.84667        -5.85926         1.99560
S          12.04339        -7.39533         2.53768
S          12.92526        -6.62994         2.26769
C           9.99259        -6.49145         2.21878
C           7.91712        -5.12776         1.73743
H           0.80334         0.73180        -0.33074
H           0.65775        -0.28346         0.95977
H           0.65775        -0.86859        -0.69804
H           4.97533        -0.41254         0.07316
H           4.38733        -3.64715         1.21483
H           7.13719        -1.43158         0.43284
H           7.11535        -4.06246         1.36142
H           9.21008        -2.77308         0.90633
H           8.76047        -6.03278         2.05686
H           9.72962        -5.49784         1.86798
H          13.36811        -5.20956         2.79723
H          13.36811        -5.85670         0.96377
H          10.86296        -7.99192         2.74836
H           6.25409        -4.85513         1.64120

