%chk=CSC1dCCdCCdCCdCCdC2CdC1NqSrS2.chk
%NProcShared=20
# opt freq b3lyp/6-31g(2df,p)

Title Card Required 

0  1
C           2.86792         0.91112         0.64538
S           5.32917         1.98687         1.83035
C           7.76220         3.15296         2.48959
C           6.47695         2.33892         1.43945
C           5.78465         3.88066         1.06391
C           7.00849         4.17776         0.74728
C           7.07765         5.03688         1.93382
C           8.34283         5.20843         1.94104
C           8.74393         6.35816         2.58858
C           9.92847         6.81405         2.44574
C          10.50821         7.83230         3.18759
C          11.71194         7.45342         2.93109
C          11.47787         5.46750         2.97025
C           9.81670         4.54634         3.13294
N          11.35720         5.94525         3.95181
S          13.50505         7.12857         4.66386
S          12.38140         8.12974         4.13850
H           1.70888        -0.22021        -0.06673
H           1.41259         0.93929        -0.32252
H           1.28474         0.32879         0.94814
H           6.03562         1.23015         0.34555
H           4.68217         3.92105         1.60294
H           7.63155         2.90173         0.56280
H           6.26908         5.47889         2.40204
H           9.07845         4.19773         1.59994
H           8.12991         6.94661         3.11130
H          10.53187         5.90578         1.71617
H          10.02099         8.50300         3.78772
H          12.85986         5.98895         2.43508
H          15.23117         7.98603         5.32998

