%chk=CSC1dCCdCCdCCdC1[C]SCCdO.chk
%NProcShared=20
# opt freq b3lyp/6-31g(2df,p)

Title Card Required 

0  1
C           1.00139         0.04551         0.08279
S           2.74604         0.40756        -0.16996
C           3.22464         1.02614         1.47278
C           3.34819         2.34844         1.39746
C           3.48991         3.47062         2.26159
C           3.60411         3.63795         3.56201
C           3.80561         2.73391         4.65110
C           3.94555         1.41368         4.75073
C           3.86896         0.26941         3.84962
C           3.51724         0.04990         2.55604
C           3.68591        -1.30039         2.00850
S           4.34568        -2.30058         0.79762
C           3.37161        -3.74677         0.40904
C           3.03170        -3.83752        -1.06859
O           2.89840        -4.91262        -1.65729
H           0.66035        -0.56035        -0.76208
H           0.42895         0.97514         0.09403
H           0.81718        -0.51656         1.00160
H           3.26298         2.75661         0.38518
H           3.38849         4.39301         1.68071
H           3.55972         4.68316         3.88356
H           3.89083         3.29633         5.58826
H           4.19487         1.10541         5.77660
H           4.17689        -0.61393         4.42736
H           2.49265        -3.98552         1.01460
H           4.12761        -4.51895         0.56515
H           2.82240        -2.89892        -1.60967

