%chk=CSC1dCCdCCdCCdCqCSSSr[SH]1C.chk
%NProcShared=20
# opt freq b3lyp/6-31g(2df,p)

Title Card Required 

0  1
C           1.16247         0.09639        -0.05162
S           3.01833         0.34965        -0.66413
C           4.03515         1.07641        -2.46915
C           5.09253         0.78537        -1.74507
C           5.94241         1.13744        -2.61568
C           7.14738         1.24364        -2.87659
C           7.32371         1.73441        -4.08280
C           8.44839         1.95337        -4.61970
C           7.94418         2.43059        -5.80016
C           6.62428         2.51293        -6.10205
C           8.69649         2.86468        -6.85788
S          11.18662         2.99714        -7.20014
S          12.78223         3.79778        -9.16445
S          15.26574         3.91087        -9.44304
S           4.45183         2.01702        -4.57614
C           2.36885         1.41876        -3.39303
H           0.82570        -0.31956         0.97217
H           0.69936        -0.61075        -0.73435
H           0.69925         1.07910        -0.04794
H           5.48519         0.41668        -0.84265
H           5.58010         1.46541        -3.43834
H           7.78987         0.96476        -2.18960
H           6.39884         1.92689        -4.55793
H           9.35645         1.74008        -4.09871
H           7.25016         2.88971        -6.92850
H           9.41952         3.95410        -7.29312
H           9.42013         2.38081        -7.93122
H          15.78724         4.42415       -10.70670
H           2.90603         2.01378        -4.77128
H           1.77777         0.96084        -2.17722
H           1.25418         0.60010        -3.45839
H           1.26087         2.10193        -2.84672

