%chk=Nc1ccc2cccc3cqc1-2rdCCd3.chk
%NProcShared=20
# opt freq b3lyp/6-31g(2df,p)

Title Card Required 

0  1
N           1.19242        -0.29774         0.08712
C           2.55980        -0.45408         0.05588
C           3.21049         0.90952         0.08785
C           4.53514         0.84059         0.08427
C           4.85995        -0.53587         0.01746
C           6.15584        -0.91620         0.05089
C           6.16731        -2.28766         0.08427
C           6.44980        -3.54562         0.09835
C           5.01533        -4.01767         0.08035
C           3.74758        -3.18671        -0.04336
C           3.55563        -1.44841         0.00138
C           3.09821        -4.36644        -0.03558
C           4.33449        -5.14314         0.16046
H           0.80727         0.65400         0.09325
H           0.51480        -1.04254         0.08633
H           2.72388         1.87837         0.09908
H           5.29907         1.59528         0.10915
H           7.03157        -0.30746         0.08964
H           5.39914        -2.28876         0.87587
H           7.41049        -4.02670         0.01597
H           2.01907        -4.35986         0.13976
H           5.05718        -6.00232         0.05000

