%chk=NC1dCqCdSrCdCNdCCdCC1dS.chk
%NProcShared=20
# opt freq b3lyp/6-31g(2df,p)

Title Card Required 

0  1
N           1.79814         0.02159        -0.06716
C           3.42124        -0.17073         0.33096
C           3.23599        -0.74007         1.50957
C           2.17769        -1.16773         2.39488
S           0.52874        -1.17937         2.41897
C           4.45000        -0.95145         1.94715
C           4.83541        -1.49327         3.06879
N           6.03399        -1.42181         2.92086
C           7.19489        -1.66579         3.42595
C           8.18756        -0.99006         2.02707
C           7.20777        -0.41672         0.84018
C           5.34470         0.00284        -0.02835
S           4.86647         0.71985        -1.51267
H           1.05808        -0.32313         0.64644
H           1.13902         0.36971        -0.78782
H           2.61983        -1.59503         3.27946
H           5.33730        -0.72555         1.47952
H           4.32189        -1.87524         3.85952
H           7.14722        -2.13601         4.39936
H           9.32981        -1.10955         2.27444
H           7.27875        -0.89349         1.82716

