%chk=NC1dCC2dNNdCc3cccc2c3Cdc2ccccc2dNO1.chk
%NProcShared=20
# opt freq b3lyp/6-31g(2df,p)

Title Card Required 

0  1
N           2.41666        -0.31759         0.14994
C           3.97723        -0.26517        -0.09062
C           4.82698        -0.51696        -1.21711
C           6.59250        -0.86538        -1.70834
N           6.12571        -1.60745        -2.69609
N           7.04668        -2.42877        -3.18274
C           7.20036        -3.47174        -2.43713
C           8.48318        -3.57751        -1.71737
C           9.42594        -3.62043        -2.77350
C          10.28780        -2.57353        -2.82786
C           9.86274        -1.48475        -1.93108
C           8.43446        -1.28098        -1.19039
C           8.50312        -2.53810        -0.70644
C           8.58042        -2.74770         0.75477
C           7.35131        -2.97776         1.23679
C           6.76121        -2.58024         2.50963
C           5.38977        -2.77655         2.56259
C           4.56896        -3.37674         1.35517
C           5.16234        -3.60367         0.16402
C           6.21815        -2.61728         0.33175
N           6.06285        -1.29779         0.48799
O           4.74459        -0.78652         0.97176
H           1.73557        -0.77115        -0.48652
H           1.89551         0.56636         0.37163
H           4.21737        -1.39527        -1.56471
H           6.43565        -4.19408        -2.15249
H           9.26502        -4.22836        -3.66585
H          11.21958        -2.66510        -3.41287
H          10.78427        -1.76477        -1.18776
H           9.38129        -2.29234         1.36620
H           7.24774        -1.70032         2.97427
H           4.78291        -2.10254         3.16311
H           3.55083        -2.98091         1.19035
H           4.66544        -3.61565        -0.81678

