%chk=NC1dc2ncccc2dC2CdCCdCCdCqCdC2rCCdN1.chk
%NProcShared=20
# opt freq b3lyp/6-31g(2df,p)

Title Card Required 

0  1
N           0.64637        -0.99041         0.15099
C           0.68268        -0.05573         1.16466
C           1.82457         0.49046        -0.07137
N           3.60262         0.62017        -0.38046
C           4.48399         0.94427        -1.52060
C           4.06588         1.19986        -2.97657
C           2.70665         1.47000        -2.97466
C           1.32866         1.23147        -1.81677
C          -0.26864         1.69653        -1.72945
C           0.06824         2.10248        -0.46628
C          -0.87148         1.25951        -0.31251
C          -1.51856         0.73848         0.67321
C          -2.77339         0.72311         0.79193
C          -3.29195         1.65722         1.68569
C          -4.43833         1.52001         0.99059
C          -3.74156         2.03582        -0.86341
C          -2.22625         2.17484        -1.88755
C          -4.54371         0.51661         2.74698
C          -2.70082        -0.48240         2.66369
N          -1.06834        -0.48555         2.15797
H           0.39838        -0.47418        -0.72917
H          -0.15438        -1.25510         0.65212
H           5.79200         1.24144        -1.56486
H           4.84345         1.26986        -3.89550
H           2.47946         1.95852        -3.92325
H           0.77314         1.91011         0.28460
H          -1.63902         0.92844        -0.91709
H          -0.95743         1.17735         1.42446
H          -2.70483         1.40122         0.10289
H          -2.75122         1.42969         2.67454
H          -4.94107         2.15748        -0.69946
H          -1.58513         2.41176        -2.87540
H          -5.16967         1.05750         3.81675
H          -5.59018        -0.39704         3.10438
H          -4.06112        -0.26684         2.04081

