%chk=NC1dCCdc2cccnc2dCN[CH]C1dO.chk
%NProcShared=20
# opt freq b3lyp/6-31g(2df,p)

Title Card Required 

0  2
N           1.46071        -0.15349        -0.28362
C           2.83769        -0.12822        -0.05207
C           3.12108         0.33138         1.16959
C           4.46638         0.33323         1.53333
C           5.23012         0.93062         2.40431
C           4.59629         1.33849         3.62817
C           5.32489         1.14358         4.71927
C           6.79422         1.15590         4.48173
N           7.43480         0.95830         3.36169
C           6.67723         0.71636         2.22966
C           7.18931         0.36816         1.00266
N           6.51973         0.36971        -0.29617
C           5.66965        -0.66137        -0.87763
C           4.01703        -0.60207        -1.15202
O           3.62790        -1.02166        -2.24926
H           0.84777         0.10003         0.49599
H           1.02002        -0.55344        -1.09762
H           2.38179         0.69284         1.87366
H           4.94717        -0.47716         1.03260
H           3.51694         1.42781         3.66343
H           4.89917         1.04791         5.70651
H           7.36579         1.43502         5.38094
H           8.27501         0.26137         0.90904
H           5.89249         1.17266        -0.23077
H           6.27692        -1.27090        -1.55964

