%chk=NC1dCqC2dCCdCCdCSCdCSCdCS2rS1.chk
%NProcShared=20
# opt freq b3lyp/6-31g(2df,p)

Title Card Required 

0  1
N           1.47769         0.11241        -0.23274
C           3.49205         0.49842        -0.64002
C           5.45418         0.95009        -1.11659
C           7.66070         1.76543        -1.97682
C           5.75736         1.81121        -2.02514
C           7.12124         1.65230        -1.85747
C           7.37762         2.87264        -3.14504
C           8.58094         2.99604        -3.27524
C           9.87032         3.94283        -4.27418
S          12.11535         3.02951        -3.31044
C          10.93476         3.96835        -4.30066
C          12.79958         3.41550        -3.71733
S          12.65645         5.16952        -5.56968
C          14.14958         4.70677        -5.20390
C          12.28151         4.34252        -4.70606
S          10.22752         2.75609        -3.02200
S           4.08121        -0.45729         0.36834
H           0.51426         0.56540        -0.71069
H           0.56599        -0.60557         0.52479
H           4.79303         2.26821        -2.50731
H           7.81628         0.76145        -0.91754
H           6.65695         3.20474        -3.49544
H           9.41556         1.91556        -2.13523
H           8.84224         3.98606        -4.31981
H          11.00095         4.96947        -5.35735
H          14.11632         3.71246        -4.03069
H          15.79172         5.02654        -5.41649
H          14.00724         4.79262        -5.03849

