%chk=NC1dCCdCCdC2CdCNdCCdC2SCSS1.chk
%NProcShared=20
# opt freq b3lyp/6-31g(2df,p)

Title Card Required 

0  1
N           1.05793        -0.32958         0.20193
C           2.33520        -0.07742         0.76438
C           3.29164        -0.97981         0.45251
C           4.74828        -0.74224         0.57792
C           5.43373        -1.03225         1.68960
C           6.84854        -1.04216         2.05496
C           7.42928        -1.49314         3.22490
C           8.91362        -1.49482         3.22699
C           9.79792        -1.87173         4.18226
N           9.67227        -2.32563         5.44270
C           8.52627        -2.49590         6.03647
C           7.13618        -2.34622         5.59624
C           6.64266        -2.02807         4.38276
S           5.10087        -2.84961         4.09107
C           3.80667        -1.92500         4.94770
S           2.31297        -1.19753         3.79472
S           2.58315         0.56134         2.51644
H           0.34294        -0.28831         0.91673
H           0.77611         0.31693        -0.54707
H           2.94925        -1.91317         0.94362
H           5.23324        -0.32496        -0.29299
H           4.75785        -1.29651         2.46483
H           7.49013        -0.68680         1.24759
H           9.39193        -1.18411         2.29873
H          10.85336        -1.80908         3.90413
H           8.60169        -2.92039         7.05380
H           6.46880        -2.76860         6.34477
H           4.02591        -1.35461         5.86979
H           3.34441        -2.82836         5.38963

