%chk=NC1dCCdCCdCCdCCq[C]dOrdNS1.chk
%NProcShared=20
# opt freq b3lyp/6-31g(2df,p)

Title Card Required 

0  2
N           1.78475        -0.06132         0.00931
C           3.88293        -0.17936         0.11653
C           3.13222        -1.00745         0.86865
C           4.40633        -1.10006         0.95276
C           5.14471        -1.88071         1.66180
C           6.67023        -2.05839         1.82318
C           6.89402        -2.88823         2.57689
C           8.13308        -2.61987         2.33315
C           9.21735        -3.40536         3.04658
C          10.21578        -2.78485         2.48300
C          11.79563        -2.51365         2.23667
O          11.40600        -1.70329         1.50065
N           8.77954        -1.87320         1.65498
S           6.59517        -0.65776         0.55104
H           0.55472        -0.63302         0.52857
H           0.58006         0.59572        -0.58745
H           2.48617        -1.57524         1.38435
H           5.10300        -0.49015         0.39880
H           4.68017        -2.49789         2.22236
H           7.79104        -1.33136         1.16285
H           6.86426        -3.52393         3.15427
H           9.43227        -1.27570         1.11229
H           9.13515        -4.17204         3.74293

