%chk=NC1dCCdCC2dCqNdSrCdCSC1dC2.chk
%NProcShared=20
# opt freq b3lyp/6-31g(2df,p)

Title Card Required 

0  1
N           1.28180         0.05843        -0.18321
C           2.68154        -0.02748        -0.27972
C           3.15205        -1.30904        -0.10095
C           4.49956        -1.69919        -0.00024
C           5.58811        -0.89971         0.32538
C           5.59558         0.60800         0.83667
C           6.66910         1.50711         0.72369
N           7.02389         2.89831         0.85761
S           6.24824         4.09972         0.29306
C           7.49845         0.90783        -0.29359
C           6.99227         1.32723        -1.46950
S           4.96872         1.59520        -1.84597
C           3.71402         1.17290        -0.28474
C           4.32833         1.33929         0.90035
H           0.72313        -0.78725        -0.07146
H           0.80297         0.94604        -0.06964
H           2.43974        -2.13247        -0.06421
H           4.67508        -2.75334        -0.19420
H           6.50274        -1.42303         0.08525
H           7.87287        -0.10474        -0.13756
H           7.56569         2.30613        -1.44740
H           4.63827         2.37874         1.04263

