%chk=NCc1cnccccc2c3c1dCCdCCdNC2dNCd3.chk
%NProcShared=20
# opt freq b3lyp/6-31g(2df,p)

Title Card Required 

0  1
N           2.32605         0.60658        -1.22001
C           3.92928         1.46315        -2.78084
C           5.38743         2.53643        -4.84271
C           4.67950         1.68077        -3.17318
N           5.76201         1.62285        -3.04130
C           6.81471         1.50343        -2.79015
C           7.13095         2.05618        -3.91912
C           8.27896         2.21348        -4.24497
C           8.66138         2.75667        -5.33348
C           9.90376         2.81856        -5.41615
C           9.27347         3.34757        -6.45164
C           6.93148         3.52212        -6.68610
C           7.75194         4.56605        -8.64133
C           9.38616         5.26160       -10.20018
C           9.34735         4.55187        -9.27232
C          10.58003         4.52822        -8.91677
N           9.99859         4.08694        -7.96095
C          10.63698         3.54242        -6.87270
N          11.88557         3.51132        -6.83923
C          11.16068         3.01432        -5.85944
H           1.42868         0.05874         0.13599
H           1.01527        -0.26765        -0.88903
H           3.55516         0.31333        -1.44409
H           3.55249         1.11891        -1.05066
H           4.95377         0.91140        -1.63744
H           7.05277         1.09142        -2.00534
H           6.91229         2.51647        -4.83010
H           8.88471         1.87251        -3.55911
H           8.00039         3.04447        -5.94654
H           8.21385         5.30649       -10.28273
H          11.05613         5.56793       -10.96111
H           8.58640         3.68436        -8.18172
H          11.58555         4.57433        -8.98233
H          12.68546         2.65233        -5.17688

