%chk=NCC1dCCdCSONdCqSSrSSS1.chk
%NProcShared=20
# opt freq b3lyp/6-31g(2df,p)

Title Card Required 

0  1
N           1.25343         0.16547         0.20815
C           2.96178         0.52754         0.50229
C           4.14408         1.46620         1.83741
C           5.02958         0.92856         1.08771
C           5.37379         1.71547         2.03313
C           6.88547         2.31929         2.57074
S           6.79400         4.06296         4.41080
O           7.33550         2.68528         4.43252
N           8.60678         3.90600         4.91858
C          10.05864         3.51053         4.26787
S          11.48928         2.88827         3.44426
S          10.42393         1.69768         2.01770
S           9.83926         4.59109         5.27894
S           8.48821         3.24572         3.10244
S           5.47818         3.12070         3.30996
H           0.99253        -0.51993        -0.61200
H           0.79532         0.98822        -0.19735
H           3.12495         0.59361        -0.66228
H           3.12367        -0.69951         0.43406
H           5.19423         0.28966         0.30898
H           4.05686         2.42727         2.88255
H           7.50972         1.56418         1.83225
H          11.06327         1.01591         1.17689

