%chk=NCCN1N[SH]1CCqdOrCd[SH][SH]dO.chk
%NProcShared=20
# opt freq b3lyp/6-31g(2df,p)

Title Card Required 

0  1
N           0.99743         0.07309        -0.00822
C           2.46590         0.06846         0.00891
C           3.04659        -0.84536         1.11157
N           4.52003        -0.87079         0.99880
N           5.15839        -1.20177         2.24383
S           5.33961        -2.37513         1.08122
C           6.72336        -2.29802         0.01743
C           6.44473        -3.19258        -1.16432
O           5.36066        -3.71811        -1.40580
C           7.57259        -3.49955        -2.10430
S           7.30300        -4.65635        -3.46357
S           8.96758        -4.47543        -4.53242
O           8.68731        -5.50486        -5.58552
H           0.67502         0.70498        -0.74222
H           0.64151         0.45462         0.86687
H           2.81685         1.09797         0.14834
H           2.81618        -0.26763        -0.97375
H           2.63478        -1.85382         0.97877
H           2.70676        -0.47569         2.08915
H           4.50411        -1.53198         2.95672
H           4.45203        -3.38054         0.98835
H           7.56197        -2.70135         0.59267
H           6.93693        -1.27436        -0.29819
H           8.53683        -3.01423        -1.89971
H           6.45000        -3.97573        -4.20044
H           9.80843        -5.14783        -3.77505

