%chk=NCdCCdCdNC1dC2C3dCdC1CdNN32.chk
%NProcShared=20
# opt freq b3lyp/6-31g(2df,p)

Title Card Required 

0  1
N           1.10950         0.08658         0.00262
C           2.47140         0.15765        -0.05631
C           3.18116         0.87892        -0.94017
C           4.62886         0.96859        -1.01914
C           5.25273         1.72551        -1.89885
N           5.83468         2.39343        -2.67745
C           6.03765         1.80390        -3.92236
C           7.23280         1.74704        -4.65365
C           7.51972         0.38635        -4.51310
C           6.37977        -0.10255        -3.85308
C           5.46540         0.67810        -4.57202
C           5.52449         0.38831        -6.02541
N           6.65296         0.57585        -6.66749
N           7.66797         1.00323        -5.75717
H           0.64137        -0.45131         0.72581
H           0.53707         0.63375        -0.63085
H           2.94255        -0.45397         0.71335
H           2.63331         1.46322        -1.67398
H           5.20869         0.37790        -0.31476
H           4.66552        -0.13430        -6.47472

