%chk=NCdNC1dCNdCCdCCdCCqdOrCdNN1.chk
%NProcShared=20
# opt freq b3lyp/6-31g(2df,p)

Title Card Required 

0  1
N           1.22212         0.07624         0.08788
C           3.04111         0.04937         0.21942
N           4.50190        -0.12054         1.05108
C           6.41494        -0.20032         1.44159
C           5.44887        -0.40519         2.44442
N           6.63577        -0.46058         2.71556
C           7.26654        -0.66647         3.72336
C           8.66359        -0.67675         3.77365
C           9.10730        -0.91389         4.93444
C          10.38610        -0.91406         4.93527
C          11.34742        -1.08774         5.78540
C          13.26995        -0.98088         5.26232
O          14.08139        -0.80146         4.38407
C          11.92965        -0.86303         4.68547
N          10.37781        -0.58298         3.31469
N           8.41806        -0.33251         2.08864
H           0.58493         0.25951        -0.80920
H           0.53117        -0.07930         0.84925
H           3.06002         0.27553        -0.88759
H           4.75273        -0.56879         3.24522
H           6.72143        -0.82902         4.51898
H           9.62279        -0.39513         2.39519
H           8.78368        -1.09613         5.82645
H          11.58839        -0.62859         3.53790
H          11.18426        -1.29690         6.80918
H          12.68532        -1.17804         6.22737
H           7.86740        -0.11421         1.02013

