%chk=NCdNC1dCqCdSrCdCCdCNSCdC1.chk
%NProcShared=20
# opt freq b3lyp/6-31g(2df,p)

Title Card Required 

0  1
N           1.13619         0.00402        -0.00812
C           2.88130        -0.06882         0.05968
N           4.30490        -0.70213         0.62398
C           6.27897        -0.88467         0.71440
C           5.35680        -1.79286         1.61693
C           4.40108        -2.58488         2.42616
S           2.76205        -2.64497         2.46220
C           6.51039        -2.04797         1.91600
C           7.26367        -2.74828         2.57457
C           8.58206        -2.58856         2.63017
C           9.23253        -3.49232         3.29397
N          10.31281        -2.93815         2.92967
S          11.49522        -3.69659         3.30881
C          10.24880        -2.39762         1.70693
C           8.41739        -1.58276         0.95627
H           0.52824         0.66008        -0.62014
H           0.49181        -0.58335         0.53903
H           2.98964         0.73278        -0.68799
H           4.95906        -3.29597         3.06953
H           7.16073        -1.52410         1.56334
H           6.78740        -3.37114         3.13410
H           9.39419        -1.26151         2.01495
H           8.99537        -4.25263         3.94991
H          11.47607        -2.15283         2.15057
H          11.64454        -3.06521         2.63054
H           7.77584        -0.45603         0.36458

