%chk=NdC1CdCCdCCdCCdCNdCNdNCdCS1.chk
%NProcShared=20
# opt freq b3lyp/6-31g(2df,p)

Title Card Required 

0  1
N           4.04026         1.27034        -0.22309
C           6.11500         1.78577        -0.33440
C           3.93541         1.72329        -0.32091
C           5.49989         1.54024        -0.28138
C           5.20533         3.23473        -0.64731
C           6.60022         3.30201        -0.66184
C           7.21509         4.33012        -0.88387
C           8.48067         4.77574        -0.98010
C           9.08493         5.72177        -1.18440
C          10.14553         5.37051        -1.10855
N          10.65153         6.78092        -1.41313
C          11.73399         6.49634        -1.35167
N          12.89528         7.72353        -1.61669
N          14.52332         7.36965        -1.54027
C          13.20133         6.30065        -1.30941
C          11.51076         4.76280        -0.97731
S           9.00034         3.05271        -0.60801
H           2.32338         1.03082        -0.17137
H           2.57185         2.34469        -0.45511
H           5.10278         0.23706         0.00005
H           4.38947         3.73586        -0.75553
H           7.38670         2.14074        -0.41106
H           6.58166         4.99359        -1.02715
H           9.94026         4.02171        -0.81727
H           8.68116         6.43070        -1.33750
H          10.99025         3.74099        -0.75664
H          12.86336         4.94362        -1.01636
H          14.13692         7.94892        -1.66536
H          13.08315         5.91022        -1.22510

