%chk=Ndc1c2ccccc3cccqc1dC2rdCCdCCdC3N.chk
%NProcShared=20
# opt freq b3lyp/6-31g(2df,p)

Title Card Required 

0  1
N           2.42460         1.05774        -0.81248
C           3.83030         2.08973        -1.61345
C           4.00423         1.05835        -0.85173
C           4.99640         0.57720        -0.44649
C           5.77729         1.32418        -1.04542
C           6.94243         1.65690        -1.30462
C           7.81462         2.51854        -1.98639
C           9.47960         2.64129        -2.06814
C           8.89652         3.51020        -2.94911
C          10.21613         3.85488        -3.10786
C           8.20334         3.98410        -3.13572
C           5.78295         3.18676        -2.52216
C           4.19611         2.55758        -2.08291
C          10.17361         4.51388        -3.58440
C          12.14815         5.27232        -4.20219
C          14.02123         5.18916        -4.14232
C          12.79529         4.20648        -3.34116
C          11.48065         2.82415        -2.17896
N          10.15884         1.76904        -1.39194
H           1.46090         0.02446        -0.00647
H           5.15959        -0.13208         0.12177
H           5.95973         2.01424        -1.60496
H           7.28206         0.97174        -0.76271
H           7.01316         3.50077        -2.80687
H           8.85808         4.92267        -3.89561
H          12.01627         3.52534        -2.89745
H           2.75168         2.92323        -2.32953
H          11.43416         4.32466        -3.43532
H          12.95536         6.29979        -5.03386
H          15.57796         5.04413        -4.02781
H          13.84114         5.24119        -4.16153
H           9.80567         0.82267        -0.64147
H           8.88917         1.38114        -1.09218

