%chk=NdC1CC2dCqCdN2rNdCCdCCdCSSSSN1.chk
%NProcShared=20
# opt freq b3lyp/6-31g(2df,p)

Title Card Required 

0  1
N           3.55229         0.14606         0.00986
C           5.42218         0.26227         0.04869
C           3.54092         1.28491         0.39053
C           4.94785         1.34222         0.40965
C           5.83143         2.44862         0.77944
C           4.68465         2.78522         0.89207
N           5.98968         1.75097         0.54649
N           6.65146         3.29191         1.06132
C           7.79369         3.18804         1.02667
C           8.89572         2.70112         0.86393
C           9.50511         3.77370         1.22243
C          10.70380         3.23020         1.04075
C          11.43001         4.24720         1.38069
S          13.10943         3.87131         1.25507
S          14.53737         4.89353         1.59672
S          12.90598         2.60584         0.83204
S          10.21827         1.07108         0.31903
N           7.52064         0.78464         0.22329
H           2.07236         0.61832         0.16773
H           2.83200         1.58610         1.45174
H           2.83199         2.16369        -0.27625
H           4.75140         3.92615         1.27338
H           7.42933         4.05878         1.31772
H           8.72130         1.58021         0.48926
H           9.51356         4.80321         1.56654
H          11.48163         2.07568         0.65488
H          11.82328         5.11657         1.67128
H           7.02565         0.00134        -0.03850

