%chk=Ndc1cccc2cqc3cccc1-3rSSCdC2.chk
%NProcShared=20
# opt freq b3lyp/6-31g(2df,p)

Title Card Required 

0  1
N           2.23193         2.04737        -0.17205
C           3.40919         2.50370         0.34160
C           3.67811         1.33763         1.24936
C           4.88103         0.89505         0.77415
C           6.07377         1.72378         0.88325
C           7.34308         2.24889         0.90082
C           7.10820         3.59252         1.37334
C           5.96791         4.31879         1.25522
C           6.29139         5.61315         1.79028
C           5.10765         6.18478         2.08676
C           4.00738         5.26684         1.60308
C           4.31782         4.06027         0.95216
S           8.31963         4.01734         2.71698
S           9.72501         4.65744         1.42586
C           9.92114         2.99429         0.91023
C           8.88187         2.07567         0.62990
H           2.05505         0.97596        -0.41218
H           3.02337         1.99520         1.90305
H           4.84353        -0.07240         0.30484
H           5.51754         2.29519         1.63725
H           7.22835         6.06806         2.08479
H           5.26814         7.14679         2.56065
H           3.10901         5.77538         1.90104
H          11.01476         2.87926         0.97989
H           9.09398         1.04828         0.38106

