%chk=NdC1CdCCdCCdCqNrC1dCCd[SH]S.chk
%NProcShared=20
# opt freq b3lyp/6-31g(2df,p)

Title Card Required 

0  1
N           1.88797        -0.02295        -0.03108
C           3.33233        -0.18981         0.34383
C           2.97274        -0.77844         1.51461
C           4.11866        -0.93723         1.93248
C           5.00582        -1.33245         2.77803
C           6.34328        -0.74257         2.29622
C           6.79270        -1.87003         2.93672
C           6.63536        -1.49497         1.44195
N           8.11548        -1.67765         2.69323
C           5.33744        -0.34341         0.03840
C           4.21074         0.53405        -1.00111
C           3.75853         1.58654        -2.61735
S           2.40538         2.38875        -4.20791
S           3.75375         3.36575        -5.71901
H           0.99373        -0.32547         0.68195
H           2.26119        -1.17741         2.09036
H           4.80629        -0.27023         1.62959
H           4.61760        -1.97289         3.54070
H           7.36653        -0.14379         1.23419
H           6.56115        -2.20325         4.07831
H           9.21319        -1.83333         3.19380
H           8.17855        -2.25768         3.91321
H           2.83624         0.78646        -1.32314
H           4.57868         1.89240        -3.19413
H           1.73677         3.55005        -3.93830
H           4.51581         2.39746        -6.28657

