%chk=Ndc1scc2cc-2cc2cc1CdNNdCS2.chk
%NProcShared=20
# opt freq b3lyp/6-31g(2df,p)

Title Card Required 

0  1
N           2.81396         0.45392        -2.01488
C           4.25334         0.67183        -3.00958
S           3.67356         0.25860        -1.12328
C           5.20834         0.26991        -1.17494
C           5.93515         0.48690        -2.16543
C           6.94659         0.64352        -2.88036
C           5.58522         0.80228        -3.60505
C           3.32291         0.91616        -4.12488
C           2.36925         1.11233        -5.02037
C           3.45631         1.27675        -5.77088
C           5.38901         1.14236        -5.15743
C           6.52923         1.56993        -7.10915
N           7.55643         1.42221        -6.43486
N           5.86637         1.56982        -7.10865
C           4.73592         1.47312        -6.66725
S           3.03233         1.56148        -7.07061
H           2.12443         0.18471        -0.78600
H           5.58537         0.07898        -0.30340
H           7.97851         0.55119        -2.45888
H           2.50964         0.76517        -3.43564
H           2.01873         1.21401        -5.48447
H           6.94717         1.89379        -8.58750
H           4.30888         1.09319        -4.93296

