%chk=NdC1CdCCdCCdCC2dNCdCC12S.chk
%NProcShared=20
# opt freq b3lyp/6-31g(2df,p)

Title Card Required 

0  1
N           4.12833        -1.14275         1.88359
C           5.63204        -1.81123         2.33337
C           4.15269        -1.96947         1.04644
C           4.88020        -1.83717        -0.06446
C           5.36975        -3.08909         0.48723
C           6.66180        -2.85197         0.56903
C           7.26973        -4.04069         0.88318
C           8.59357        -3.74588         0.83882
C           8.42512        -4.47825         1.99356
N           8.79748        -5.84243         1.91318
C           9.65715        -5.91069         2.91241
C           8.87241        -4.57785         3.25494
C           7.32067        -3.24398         2.97052
S           9.10768        -2.88979         4.42596
H           3.17679        -0.33628         1.17235
H           2.84329        -2.29213         1.05601
H           5.22567        -0.68290         0.04880
H           4.75660        -3.59279         1.45912
H           7.11033        -1.80058         0.65828
H           6.65342        -4.67790         1.79933
H           9.14272        -2.81912         1.15267
H          10.08964        -7.21530         2.79254
H          10.26251        -4.72048         3.43379
H          10.58599        -3.59793         4.90450

