%chk=Ndc1cccccc2ccc3nccccccc-3ccc-2[nH]1.chk
%NProcShared=20
# opt freq b3lyp/6-31g(2df,p)

Title Card Required 

0  1
N           2.28705        -0.23878         0.13906
C           4.05273        -0.60160         0.53436
C           2.72899        -1.08483         1.05645
C           3.91946        -1.25767         1.24362
C           5.15023        -2.21828         2.28607
C           7.10989        -1.80593         1.85632
C           7.36444        -2.92249         3.04304
C           8.80609        -2.62452         2.71851
C          10.01447        -3.25672         3.40206
C          11.20636        -3.63445         3.78865
C          11.86085        -4.75120         5.06548
N          13.12528        -4.45436         4.69912
C          14.05252        -5.12816         5.42640
C          15.27248        -4.90977         5.18979
C          14.68130        -5.62761         5.94891
C          16.40544        -5.87070         6.22834
C          16.56411        -7.07896         7.56608
C          14.97357        -6.55750         6.94931
C          12.57425        -5.82096         6.17822
C          10.66982        -5.03074         5.31854
C           8.60292        -4.01792         4.21430
C           7.22344        -2.81589         2.92654
N           5.91253        -1.35205         1.34967
H           0.88261        -0.61728         0.54904
H           2.46918        -1.72746         1.74830
H           4.64589        -1.64601         1.64828
H           4.59344        -2.73686         2.84112
H           7.47508        -1.17293         1.14951
H           6.63274        -3.71269         3.90081
H          10.04043        -4.01507         4.22142
H          11.52449        -3.00138         3.12712
H          13.68111        -6.22088         6.60774
H          15.90210        -4.47441         4.72035
H          13.94173        -6.91408         7.34261
H          17.59318        -5.65937         6.00094
H          17.34770        -7.82235         8.33627
H          16.69321        -6.82100         7.25891
H           9.45683        -5.10423         5.40037
H           8.04864        -5.00596         5.29309
H           5.22848        -0.40869         0.30440

