%chk=Ndc1ccqNrcqdOrcccccccc1NdCSS.chk
%NProcShared=20
# opt freq b3lyp/6-31g(2df,p)

Title Card Required 

0  1
N           2.43250        -0.13569        -0.31943
C           4.31837        -0.39660        -0.63473
C           3.12249        -0.84640        -1.17827
C           4.50816        -0.84292        -1.17406
N           6.04110        -0.07755        -0.24918
C           5.12387        -1.64024        -2.13755
O           4.49588        -2.26711        -2.89507
C           6.49339        -1.85264        -2.39422
C           7.01243        -2.49823        -3.17435
C           8.25446        -2.52954        -3.21218
C           8.93033        -3.27559        -4.11372
C           9.41628        -2.60372        -3.30183
C          10.33105        -2.86825        -3.62148
C           8.57112        -1.71094        -2.22298
C           6.65750        -0.84830        -1.18056
N           4.88386         0.28925         0.19406
C           3.80308         1.37697         1.50847
S           2.53817         2.83410         3.26928
S           3.44754         4.37702         5.13375
H           0.86668        -0.42933        -0.67428
H           2.50280        -1.35298        -1.79043
H           5.51438         0.76345         0.76709
H           6.50714         0.29027         0.19529
H           7.73366        -1.18458        -1.58693
H           6.72462        -3.01172        -3.79486
H           8.99924        -1.16244        -1.56017
H           8.93043        -3.85031        -4.80822
H          11.30077        -2.25579        -2.88139
H          10.90140        -3.98373        -4.96944
H          10.31551        -2.08601        -2.67622
H           4.10089         2.33329         2.66410
H           2.73083         5.15467         6.07348

