%chk=Ndc1cc2cc[nH]nccc1CdCdCdCCdC2.chk
%NProcShared=20
# opt freq b3lyp/6-31g(2df,p)

Title Card Required 

0  1
N           2.01070         0.34130         0.01206
C           3.52612         0.37093         0.50229
C           3.20235        -1.08308         0.66602
C           4.44866        -1.28075         0.49420
C           4.94502        -2.27352         1.29754
C           6.18123        -2.48856         1.27889
N           6.95249        -3.33638         1.86218
N           8.07372        -3.21177         1.20867
C           8.18600        -1.72271         1.62677
C           6.88582        -0.09183         0.89198
C           5.54467         1.06571         0.36940
C           4.78788         2.77141        -0.73184
C           4.27487         3.28032        -2.20421
C           5.14702         2.54680        -2.36694
C           5.84925         1.51177        -2.20793
C           4.62233         0.46449        -1.60464
C           5.02067        -0.65843        -0.80471
H           1.01885        -0.53501         0.25968
H           2.45749        -1.77887         1.06833
H           4.48621        -3.03991         1.80571
H           6.69748        -1.98153         0.48012
H           6.66092        -4.10981         2.39667
H           8.62306        -3.02149         2.38700
H           8.25889        -0.76918         0.93158
H           4.44921         4.01726        -1.54791
H           6.57740         2.03648        -1.45980
H           3.60922         1.19027        -1.24303
H           6.07206        -0.58513        -0.61537

