%chk=NdC[SH]dC1CqdSrCCC1d[SH]S.chk
%NProcShared=20
# opt freq b3lyp/6-31g(2df,p)

Title Card Required 

0  1
N           0.93351        -0.09706        -0.01940
C           2.22420        -0.05379         0.01803
S           3.00656        -1.54749         0.58825
C           4.73249        -1.22573         0.40958
C           5.46145         0.06493         0.41871
S           5.14941         1.25705         1.51098
C           6.63876        -0.04947        -0.50552
C           6.99756        -1.55204        -0.44956
C           5.74356        -2.25256         0.03973
S           5.76945        -4.02257         0.20974
S           4.11133        -4.59787         1.20638
H           0.55387         0.80732        -0.30720
H           2.76994         0.85248        -0.27365
H           2.79194        -2.32378        -0.45168
H           7.48128         0.58717        -0.22177
H           6.31198         0.22202        -1.51624
H           7.81618        -1.72082         0.25916
H           7.29816        -1.92458        -1.43312
H           6.64581        -4.17365         1.18192
H           3.17905        -4.23348         0.31052

