%chk=Nn1cccc2cqcccccnc1rCdCCdCCdC2.chk
%NProcShared=20
# opt freq b3lyp/6-31g(2df,p)

Title Card Required 

0  1
N           0.85306        -0.06928        -0.17392
N           2.34911         0.34360        -0.88902
C           3.89095        -0.15586        -1.38982
C           5.18133        -0.15667        -0.96604
C           6.40905        -0.34381        -1.92109
C           7.68449        -0.44027        -2.50736
C           7.35311        -0.68345        -3.97803
C           6.52060        -0.89655        -4.97245
C           5.18992        -0.90277        -4.98576
C           4.43709        -1.11608        -6.04192
C           3.07711        -1.06304        -5.62563
C           1.90133        -0.97875        -5.01655
N           1.35636        -0.69381        -3.47598
C           1.98500        -0.26202        -2.38519
C           8.50647        -1.03942        -4.56252
C           9.48813        -1.23657        -5.30073
C          10.83991        -1.64699        -4.32143
C          11.46546        -0.72071        -5.04600
C          10.72765         0.12701        -3.53408
C           9.69472        -0.33728        -2.43398
H           0.05824        -0.13354        -0.84212
H           0.59290         0.17319         0.78938
H           3.78779        -0.45482        -2.49691
H           5.21383         0.03239         0.08437
H           5.66487        -0.49456        -2.70646
H           6.96005        -1.08734        -5.93759
H           4.72575        -0.74368        -4.05511
H           4.93534        -1.28814        -7.00560
H           3.27314        -0.83528        -4.61482
H           1.53591        -1.05943        -6.11592
H           2.19467        -0.91415        -1.24400
H           8.97531        -0.52226        -3.84800
H           9.27092        -1.23750        -6.34569
H          11.59497        -1.39048        -3.12386
H          11.28699        -1.00280        -6.16751
H          12.11602        -0.15482        -3.96981
H           9.16009        -0.07955        -1.39391

