%chk=Nn1c2cccccnnc[c]n1-2.chk
%NProcShared=20
# opt freq b3lyp/6-31g(2df,p)

Title Card Required 

0  2
N           1.39495        -0.23130        -0.06516
N           2.56615        -1.01851        -0.74027
C           3.62645        -1.50458        -0.39229
C           4.64712        -2.18757         0.37047
C           4.18013        -3.38879         0.76289
C           5.02053        -4.24315         0.16923
C           4.36263        -5.36068         0.50254
C           4.95586        -6.51501         0.41828
N           3.94361        -7.36068         0.40823
N           3.57064        -7.18391        -0.81172
C           2.60779        -5.98922        -1.19938
C           2.61862        -4.38013        -1.15670
N           2.39816        -2.49826        -0.61470
H           0.67843        -0.96000        -0.03910
H           0.92932         0.41337        -0.76568
H           5.66644        -2.02814         0.02995
H           3.00863        -3.62745         0.93691
H           6.08897        -4.19852         0.08418
H           3.22829        -5.33808         0.69812
H           5.89338        -6.81873        -0.02214
H           1.98150        -6.79423        -0.57660

