%chk=NNC[N]c1ccc2cccccc1-2.chk
%NProcShared=20
# opt freq b3lyp/6-31g(2df,p)

Title Card Required 

0  2
N           1.06227        -0.04412        -0.06154
N           2.52122        -0.06604        -0.03180
C           2.94883        -1.37771         0.47561
N           4.40043        -1.36240         0.62071
C           5.00464        -2.57063         0.82829
C           6.24302        -2.48411         1.62498
C           6.77752        -3.69975         1.83489
C           5.91091        -4.64852         1.16867
C           6.11402        -5.97578         1.16530
C           5.29835        -7.01167         0.56900
C           4.16332        -6.89822        -0.13547
C           3.46123        -5.71159        -0.52913
C           3.75161        -4.43334        -0.25954
C           4.80838        -3.89952         0.55214
H           0.71303         0.84889        -0.39999
H           0.68295        -0.20249         0.87189
H           2.94834         0.62293         0.58714
H           2.54027        -2.08556        -0.23360
H           2.48176        -1.56299         1.45117
H           6.63068        -1.55487         2.01383
H           7.65822        -3.93281         2.40713
H           6.99076        -6.36201         1.68121
H           5.67429        -8.02020         0.72733
H           3.70147        -7.81106        -0.50494
H           2.58655        -5.87443        -1.15384
H           3.12428        -3.70863        -0.74780

