%chk=NNCdCC1dCqCdOrCdCCdCSSNNS1.chk
%NProcShared=20
# opt freq b3lyp/6-31g(2df,p)

Title Card Required 

0  1
N           1.17513         0.07509        -0.02093
N           2.90824         0.15500        -0.20074
C           3.91841         1.35417        -1.14079
C           5.50728         2.00458        -1.33121
C           7.14098         3.26036        -1.78832
C           7.25379         1.86840        -1.90492
C           7.63668         0.76836        -0.82159
O           6.99034         0.04351        -0.05915
C           7.70295         2.14116        -3.18787
C           9.04865         1.95298        -3.17405
C           9.86887         2.57453        -4.23660
C          11.16935         2.85073        -4.13903
S          11.58191         3.82445        -5.73316
S          13.42605         3.84909        -5.00733
N          12.67062         5.40250        -4.85206
N          11.22135         5.16086        -3.41688
S           9.08822         4.42091        -2.61638
H           0.81719        -0.63148         0.70785
H           0.74551        -0.32737        -0.86637
H           3.18144        -0.49662         0.58984
H           2.89884         1.56814        -1.55176
H           5.46575         0.87937        -0.66521
H           8.69568         0.70715        -0.76569
H           6.88818         2.97756        -3.77803
H           9.50912         1.81574        -2.11052
H           9.46393         3.49486        -4.82906
H          11.68097         2.84276        -3.09870
H          13.80877         5.99170        -5.14934
H          12.46673         4.85570        -3.41114

