%chk=NNdCC1dCCdCSCdC1NdCS.chk
%NProcShared=20
# opt freq b3lyp/6-31g(2df,p)

Title Card Required 

0  1
N           1.00923        -0.14667         0.26437
N           2.33123        -0.00322         0.01293
C           3.01075        -1.11130         0.04356
C           4.47407        -1.19058        -0.25617
C           5.12421        -0.54768         0.72423
C           6.51893        -0.36539         0.99079
C           7.60441        -0.76479         0.33734
S           7.80688        -1.63158        -1.10979
C           6.28334        -2.08722        -1.74119
C           4.98352        -1.92581        -1.42178
N           4.10993        -2.65108        -2.25537
C           2.89448        -2.31272        -2.47731
S           1.81582        -3.28146        -3.46054
H           0.51121         0.72813         0.07587
H           0.54918        -0.87701        -0.28251
H           2.52180        -2.08941         0.20922
H           4.52531        -0.06978         1.50707
H           6.70145         0.20309         1.90706
H           8.55144        -0.48012         0.79861
H           6.44801        -2.67997        -2.64202
H           2.37948        -1.43967        -2.06588
H           2.72147        -3.74037        -4.32685

