%chk=NOCc1cc2cccqNdOrc3nc-3c1-2.chk
%NProcShared=20
# opt freq b3lyp/6-31g(2df,p)

Title Card Required 

0  1
N           1.21973        -0.02968         0.14903
O           2.84894         0.15422        -0.03321
C           3.90096        -0.28859         1.29939
C           5.99843        -0.31606         1.41411
C           5.54071        -0.67079         2.70721
C           6.77602        -0.74868         2.98913
C           7.01926        -1.09241         4.24521
C           8.24784        -1.11217         4.31847
C           9.10341        -1.36707         5.25499
N           8.75950        -1.69702         6.45201
O           7.52215        -1.72807         6.56591
C          10.03286        -1.14387         4.41928
N          10.96473        -0.92399         3.63767
C           9.75942        -0.64372         2.60255
C           7.77554        -0.44860         1.91450
H           0.82726         0.27217        -0.78579
H           0.83719         0.74110         0.73411
H           3.16113        -1.23677         1.63215
H           3.16742         0.35578         2.07862
H           4.62947        -0.85272         3.36915
H           6.37043        -1.29339         4.97847
H           8.49065        -0.86256         3.40468

