%chk=NS1dCSCdCCdCCdc2ccsc2dCC1dO.chk
%NProcShared=20
# opt freq b3lyp/6-31g(2df,p)

Title Card Required 

0  1
N           2.39644         0.13422         0.37748
S           4.47910         0.65899         1.07648
C           3.46170        -0.01116         2.30212
S           4.67717        -1.09825         2.62143
C           5.02626        -0.13737         3.95714
C           6.22711        -0.20927         4.43059
C           6.39152         0.09534         5.77064
C           7.50121        -0.25072         6.31763
C           7.89761         0.14328         7.56320
C           9.09847         0.55368         7.32823
C           9.81023         0.38950         8.90582
C          11.12034         0.33139         8.74986
S          11.15324         0.49584         6.56721
C           9.21447         0.95731         5.45669
C           8.27391         0.95162         3.93140
C           6.63311         0.92319         2.35011
O           6.79043         1.60533         1.34226
H           1.45921        -0.50597         0.76529
H           1.58836         0.25716        -0.54721
H           2.37969         0.08978         2.58447
H           4.24634         0.21795         4.57012
H           6.99717        -0.56805         3.72996
H           5.66466         0.28399         6.49267
H           8.20679        -0.64387         5.59232
H           7.44281         0.11594         8.51568
H           9.33399         0.25425         9.98635
H          11.83970         0.22474         9.86044
H           9.31914         0.40308         3.68382

