%chk=NtCC1dC2CdCC2dCdNC2d[SH]SNdC21.chk
%NProcShared=20
# opt freq b3lyp/6-31g(2df,p)

Title Card Required 

0  1
N           1.07098         0.05803        -0.03992
C           2.33195         0.05803        -0.03992
C           3.85195         0.05803        -0.03992
C           4.31494         0.39570        -1.41106
C           3.96265        -0.10834        -2.74906
C           5.26557        -0.15623        -3.14432
C           5.57902         0.78864        -2.09917
C           6.65521         1.19020        -1.60807
N           7.45164         1.03376        -0.70616
C           6.98605        -0.17686        -0.29283
S           7.92400        -1.53487        -1.32918
S           7.74939        -2.41889         0.35991
N           5.83434        -2.11855         0.43677
C           5.53395        -0.78002         0.15559
H           3.06115        -0.50118        -3.18994
H           5.87304        -0.54092        -3.97283
H           9.20723        -1.03573        -1.50478

