%chk=OCC1dCdCCdCCdCCdC1C1dSd[SH]1.chk
%NProcShared=20
# opt freq b3lyp/6-31g(2df,p)

Title Card Required 

0  1
O           1.57222         0.30560        -0.36641
C           2.98356        -0.14125        -0.28940
C           4.04264        -0.69782         0.96350
C           4.73078         0.17975         1.58458
C           5.99683         0.26615         1.76895
C           6.75634        -0.49496         0.77815
C           8.03744        -0.77514         0.97509
C           8.44449        -2.07363         0.45206
C           8.04154        -2.67531         1.61281
C           6.28638        -2.76807         1.87214
C           4.59223        -2.16907         1.53934
C           2.84706        -2.29687         2.06871
S           1.77522        -1.10253         3.03807
S           0.92448        -1.22195         1.45731
H           1.08633         0.08238        -1.19770
H           3.33058         0.88502        -0.43355
H           3.06381        -0.88172        -1.06291
H           6.36017         0.53688         2.74289
H           6.26159        -1.28100         0.13496
H           8.42014        -0.48639         1.98766
H           8.07435        -2.69589        -0.36082
H           9.16690        -2.42675         2.07890
H           6.86046        -3.74493         1.51829
H           0.56739         0.15853         0.90522

