%chk=Odc1[c]c2ccccc3nc-3c1-2.chk
%NProcShared=20
# opt freq b3lyp/6-31g(2df,p)

Title Card Required 

0  2
O           1.75140         1.12856        -0.13640
C           2.95675         1.19049        -0.16776
C           3.67171         0.05699        -0.11824
C           4.84257        -0.04672        -0.21384
C           6.04347        -0.83364        -0.12011
C           6.90041         0.06665         0.22962
C           8.02228         0.80305         0.60593
C           7.54407         2.06165         0.89870
C           7.80741         2.48509        -0.43584
N           7.19499         3.36581        -1.05647
C           6.03106         2.56629        -1.00337
C           4.77702         1.77230        -0.25606
H           6.29938        -1.85025        -0.04340
H           6.29305         0.89334         0.23953
H           8.74862         0.30605        -0.07114
H           7.23674         3.16021         1.10914

