%chk=OdC1[C]dCdC2C1dCSC2S.chk
%NProcShared=20
# opt freq b3lyp/6-31g(2df,p)

Title Card Required 

0  2
O           3.29668         0.72477        -0.77577
C           3.88531        -0.16490        -1.38040
C           3.37852        -1.51613        -1.18530
C           4.33892        -1.86207        -0.56564
C           5.44886        -1.19437        -0.48144
C           5.53066        -0.38294        -1.72479
C           6.87656        -0.60904        -1.91738
S           7.83353        -1.53115        -0.70675
C           6.56305        -1.09995         0.47687
S           6.89136         0.59069         1.13641
H           7.53397        -0.39721        -2.75277
H           6.40818        -1.80783         1.28257
H           7.43996         1.18575         0.05022

