%chk=Odc1c[c]c2nccccc-2ccc2nc1-2.chk
%NProcShared=20
# opt freq b3lyp/6-31g(2df,p)

Title Card Required 

0  2
O           1.83146        -0.21781         1.26404
C           2.88721        -0.60654         0.78470
C           2.97748        -1.00117        -0.63990
C           4.04991        -1.41860        -1.25293
C           5.16405        -2.05250        -1.96116
N           4.79199        -2.06712        -3.19139
C           5.37399        -2.80619        -4.17529
C           6.30207        -3.76453        -4.13204
C           7.06871        -4.23313        -3.01507
C           7.09329        -3.75723        -1.76736
C           6.32492        -2.66284        -1.20574
C           6.59098        -2.29207         0.06967
C           5.99930        -1.16758         0.75690
C           5.27848        -1.34926         1.87148
N           4.68168        -0.30659         2.64259
C           4.03185        -0.72308         1.65553
H           2.01503        -1.13929        -1.11799
H           4.90543        -2.64317        -5.14798
H           6.50021        -4.29965        -5.06190
H           7.72856        -5.06920        -3.24861
H           7.78885        -4.24803        -1.08650
H           7.30042        -2.85859         0.67277
H           5.91821        -0.24267         0.18174

