%chk=Odc1ccc2cccsccncn1-2.chk
%NProcShared=20
# opt freq b3lyp/6-31g(2df,p)

Title Card Required 

0  1
O           1.09018        -0.86454        -0.05347
C           2.31134        -0.87736        -0.05543
C           2.99738         0.51633        -0.05084
C           4.28416         0.27492        -0.03526
C           4.57259        -1.14248        -0.04702
C           5.86014        -1.31617        -0.07360
C           6.17346        -2.68023        -0.13676
C           7.25025        -3.32191        -0.14042
S           7.05447        -4.69436         0.83250
C           6.89784        -6.06008        -0.12219
C           5.55468        -6.32900        -0.16422
N           4.26120        -5.30623        -0.09587
C           3.56628        -3.96560        -0.07277
N           3.42216        -2.13786        -0.06415
H           2.61863         1.54937        -0.05402
H           5.05141         1.06294        -0.03138
H           6.66301        -0.59847        -0.02950
H           5.27529        -3.21011         0.04763
H           8.21836        -2.82859        -0.09672
H           7.87387        -6.64487        -0.10058
H           5.46635        -7.48810        -0.09041
H           2.47721        -4.20885        -0.06048

