%chk=Odc1cc2ccc3ccccnc-3cc-2n1.chk
%NProcShared=20
# opt freq b3lyp/6-31g(2df,p)

Title Card Required 

0  1
O           1.44885        -0.49691         0.22560
C           2.61234        -0.05019         0.35905
C           2.84725         1.33602         0.03758
C           4.09474         1.20326        -0.39412
C           4.96290         1.96227        -1.11954
C           5.11164         3.19381        -0.63154
C           6.48092         3.30256        -0.27065
C           7.39854         3.45036        -1.24408
C           8.70292         4.01923        -1.13494
C           8.98437         4.88601        -0.17275
C           8.15163         4.78041         1.11256
N           7.46338         3.75350         1.68906
C           6.90993         2.55977         0.92761
C           6.21759         1.23889         1.25684
C           4.69386         0.40436         0.64209
N           3.83813        -0.57796         0.87054
H           2.20326         2.16400        -0.11170
H           5.87799         1.36742        -1.31980
H           4.35898         3.66841         0.01272
H           7.45599         2.60701        -1.91820
H           9.39916         3.83306        -1.94467
H           9.85804         5.54674        -0.28133
H           8.22652         5.79884         1.60775
H           6.77038         0.34579         0.84236

