%chk=OdC1CdCCdCCdCCdNNdNSS1dS.chk
%NProcShared=20
# opt freq b3lyp/6-31g(2df,p)

Title Card Required 

0  1
O           3.04862         0.09228         0.03538
C           4.41311         0.14108         0.14573
C           3.35198         0.70947         1.43093
C           4.51485         0.86703         1.78719
C           4.90542         1.35593         2.89268
C           6.13092         1.43164         3.06387
C           6.85103         1.86791         4.05033
C           8.02188         1.66122         3.58298
C           8.73460         2.15716         4.70435
N           9.89877         2.05529         4.47402
N          11.03096         2.18565         4.76879
N          10.96647         1.55234         3.33679
S           9.47352         0.79564         1.62578
S           7.07274         0.34194         0.59989
S           5.91745        -0.43566        -1.15837
H           2.41686         0.95771         1.99224
H           5.35754         0.67641         1.35618
H           4.29781         1.66297         3.58694
H           6.63977         1.08863         2.28828
H           6.57115         2.26628         4.95109
H           7.99986         1.15617         2.44098
H           8.58987         2.58279         5.66678

