%chk=OdC1CdCCdC2CdCCdC2C1dS.chk
%NProcShared=20
# opt freq b3lyp/6-31g(2df,p)

Title Card Required 

0  1
O           1.57041         0.21191         0.04064
C           2.78013         0.12934        -0.03636
C           3.48391        -1.15922         0.18561
C           4.56778        -1.56197        -0.48587
C           5.04619        -1.02768        -1.73574
C           4.87765         0.19500        -2.24195
C           5.29202         0.54388        -3.57967
C           5.12746         1.87034        -3.69560
C           4.64019         2.40626        -2.42596
C           4.32987         1.37903        -1.61076
C           3.64053         1.35693        -0.31000
S           3.68955         2.49464         0.91573
H           3.03083        -1.80771         0.92769
H           5.03725        -2.50165        -0.19798
H           5.58099        -1.75431        -2.34605
H           5.55923        -0.16397        -4.34782
H           5.21952         2.41902        -4.62122
H           4.50595         3.46267        -2.24351

