%chk=Odc1nc2cqcc3c1dCCdN3rdC[C]2.chk
%NProcShared=20
# opt freq b3lyp/6-31g(2df,p)

Title Card Required 

0  1
O           0.15731        -1.07269        -0.79736
C           1.18857        -1.61947        -1.17928
N           2.49407        -0.98807        -0.73821
C           3.73610        -1.26681        -0.93297
C           4.72003        -2.28610        -1.64510
C           4.17983        -3.40032        -2.42352
C           2.93851        -3.79632        -2.70003
C           1.08812        -3.17448        -2.26558
C           0.25403        -4.02823        -2.86228
C           1.67151        -3.83846        -2.72989
N           2.41617        -4.73315        -3.35480
C           5.99991        -1.75399        -1.27337
C           5.02709        -0.90343        -0.67911
H           4.94651        -3.99694        -2.84043
H           0.30598        -4.98599        -3.53142
H           2.42212        -2.61394        -1.87463
H           7.04250        -2.05339        -1.48254

