%chk=OdC1CdCCdCCdCC2dNCdCC12S.chk
%NProcShared=20
# opt freq b3lyp/6-31g(2df,p)

Title Card Required 

0  1
O           5.22185        -2.38668         2.39925
C           5.82959        -3.09718         1.56042
C           4.40819        -2.32185         0.55942
C           4.71914        -1.65185        -0.55918
C           5.33679        -2.89791        -0.86986
C           6.64435        -2.77039        -0.73407
C           7.26711        -3.98922        -0.70929
C           8.58456        -3.78107        -0.57254
C           8.42491        -4.90146         0.19218
N           8.71762        -6.03440        -0.47519
C           9.22076        -6.74427         0.49820
C           8.91603        -5.84382         1.51551
C           7.57386        -4.49615         1.66120
S           9.06253        -4.21917         3.28171
H           3.19486        -2.44623         0.38757
H           5.17171        -0.67103        -0.28979
H           4.82773        -3.89667        -0.32710
H           7.09587        -1.90137        -0.20706
H           6.61177        -4.89746        -0.25863
H           9.09715        -2.97909        -0.04460
H           9.92754        -7.64407         0.20114
H          10.08600        -5.77129         1.72106
H          10.32002        -5.17970         3.31874

