%chk=OdC1CdCdC2CCNNdCdCdC2CdCC2dCOC1C2.chk
%NProcShared=20
# opt freq b3lyp/6-31g(2df,p)

Title Card Required 

0  1
O           2.38723        -1.84125        -1.09747
C           3.56175        -2.10111        -0.70189
C           3.95549        -0.70495         0.40581
C           5.02650         0.02324         0.82049
C           6.18734         0.64997         1.18574
C           6.18105         1.89815         2.10930
C           7.59795         2.08195         2.24612
N           8.63222         2.82071         2.82573
N           9.89204         2.30882         2.41972
C           9.72764         1.30598         1.64351
C           9.01427         0.51528         1.03519
C           7.70418        -0.02228         0.64400
C           7.17945        -1.05293        -0.33671
C           7.22639        -2.05797        -1.21026
C           6.11365        -2.72405        -1.90934
C           5.11811        -2.42225        -2.79839
O           4.09859        -3.34173        -2.92568
C           4.36623        -3.67013        -1.54018
C           5.90258        -4.12099        -1.53325
H           3.02920        -0.14558         0.73852
H           5.83812         1.68900         3.12053
H           5.83741         2.82055         1.64078
H           7.82462         2.29731         1.16822
H           7.82592         1.09523         2.72925
H           8.36872         3.61250         3.42097
H           6.12120        -1.01901        -0.28101
H           8.14654        -2.55693        -1.33938
H           4.61601        -1.59906        -3.27500
H           4.00055        -4.68406        -1.81804
H           6.58959        -4.59176        -2.29381
H           5.84063        -5.01490        -0.87447

