%chk=OdC1CdCCdCCdCC2dCCdCC2dCSS1.chk
%NProcShared=20
# opt freq b3lyp/6-31g(2df,p)

Title Card Required 

0  1
O           3.44662         0.42148         1.21932
C           4.08573        -0.61390         0.96047
C           3.34499        -1.50500         0.02264
C           4.30952        -1.75692        -0.86334
C           4.90201        -3.00288        -0.59813
C           6.23053        -2.92304        -0.65416
C           6.94179        -4.09108        -0.54219
C           8.23136        -3.97891        -0.82144
C           8.93530        -5.06397        -0.37864
C           8.96340        -6.26316        -0.96953
C           9.99910        -7.02116        -0.34950
C          10.52979        -6.27249         0.67130
C           9.64933        -4.95256         0.85002
C           9.37457        -3.81472         1.69772
S           8.17401        -2.05691         1.52552
S           5.85801        -1.19824         1.98459
H           2.51699        -2.14989         0.28090
H           5.00084        -0.93065        -1.06341
H           4.40031        -3.88674        -0.22574
H           6.76407        -1.97697        -0.76379
H           6.49075        -5.01040        -0.18605
H           8.79486        -3.04990        -0.90442
H           8.36989        -6.52965        -1.83251
H          10.27534        -7.98313        -0.79337
H          11.42860        -6.68078         1.13142
H          10.22741        -3.60102         2.36028

