%chk=OdC1CdCCdc2ccccc2dCNdCCdCN1.chk
%NProcShared=20
# opt freq b3lyp/6-31g(2df,p)

Title Card Required 

0  1
O           0.67357        -0.37653         0.03469
C           1.87606        -0.47704         0.30580
C           2.72353        -1.39277        -0.64575
C           4.06133        -1.50252        -0.74278
C           5.06202        -2.15994        -1.61678
C           6.43290        -2.00279        -1.57984
C           7.24116        -3.03571        -2.32057
C           8.56522        -3.20076        -2.11265
C           9.33022        -2.26007        -1.32531
C           8.74070        -1.20335        -0.74986
C           7.26016        -1.00871        -0.74605
C           6.84274         0.09542        -0.07623
N           5.61917         0.70050        -0.27471
C           5.00147         1.48637         0.52094
C           3.58282         1.92832         0.09874
C           2.54764         1.70792         0.93040
N           2.38286         0.37438         1.31022
H           2.08010        -1.89088        -1.37267
H           4.54735        -1.00851         0.06062
H           4.66498        -2.92081        -2.29754
H           6.74251        -3.72063        -3.00034
H           9.12519        -4.00401        -2.59033
H          10.41406        -2.38050        -1.29998
H           9.37297        -0.41714        -0.34093
H           7.54997         0.64207         0.54645
H           5.35429         1.84364         1.51285
H           3.46537         1.23696        -0.75541
H           2.15963         2.45680         1.62844
H           3.21870         0.12384         1.83027

