%chk=Odc1ncc2cc3cccccnc-3c-2n1.chk
%NProcShared=20
# opt freq b3lyp/6-31g(2df,p)

Title Card Required 

0  1
O           1.50046        -0.67730         0.03406
C           2.61753        -0.39108         0.39309
N           3.05649         0.91228         0.12073
C           4.28243         1.20914         0.34120
C           5.20181         0.20694         0.79894
C           6.50559         0.20018         1.04254
C           7.00142        -1.08810         1.48825
C           7.42439        -2.13575         0.74980
C           8.16466        -3.25576         1.30392
C           7.75695        -4.16010         2.20672
C           6.46277        -4.29001         2.85255
C           5.74044        -3.34943         3.48715
N           5.86941        -1.99838         3.37970
C           5.78278        -1.66374         2.12850
C           4.62809        -1.00843         1.34497
N           3.39881        -1.33510         1.11944
H           4.68839         2.21961         0.18245
H           7.03002         1.13011         1.20504
H           7.11722        -2.26042        -0.28756
H           9.18167        -3.34190         0.91680
H           8.47405        -4.93543         2.49882
H           6.03172        -5.28857         2.81313
H           4.86703        -3.61760         4.06643

