%chk=OdC1Cdc2ccncc2dCC2dCqSNdNC1rS2.chk
%NProcShared=20
# opt freq b3lyp/6-31g(2df,p)

Title Card Required 

0  1
O           0.95674         1.11769        -1.10848
C           2.08801         0.68209        -1.06271
C           2.98861         1.30301         0.22758
C           4.20815         1.05101         0.76645
C           4.95575         1.79917         1.80405
C           6.30197         1.85811         1.69513
N           7.04036         1.13621         0.77146
C           6.39570         0.21043         0.10389
C           4.89799        -0.07804         0.23496
C           4.17024        -1.18355        -0.08259
C           2.75704        -1.55281         0.36780
C           1.46231        -1.80674         0.10447
S           0.15841        -1.94950        -0.94139
N           0.77520        -2.08395        -2.49279
N           1.37608        -1.08419        -2.97203
C           2.55223        -0.57705        -2.17909
S           1.65122        -1.12103         1.64084
H           2.35318         1.90402         0.89462
H           4.47132         2.28812         2.64442
H           6.89915         2.48750         2.36923
H           6.99540        -0.45347        -0.53870
H           4.64020        -1.65563        -0.95514
H           3.33824        -0.23797        -2.84268
H           2.92475        -1.55386        -1.84144

