%chk=OdC1CdCSC2dC[N]SSCdC2S1.chk
%NProcShared=20
# opt freq b3lyp/6-31g(2df,p)

Title Card Required 

0  2
O           2.45672         0.68682        -0.21866
C           3.36964         0.19116         0.43667
C           3.09066        -1.04010         1.20071
C           4.15498        -1.77025         1.09497
S           5.11393        -2.00878         2.49879
C           6.53282        -1.47478         1.56258
C           7.41850        -2.48226         1.34762
N           8.72557        -2.68666         1.06381
S           9.73298        -1.55331         1.82526
S           9.32854         0.16659         0.83329
C           7.76525         0.64262         1.49403
C           6.59888        -0.02127         1.25599
S           5.07552         1.02380         0.65403
H           2.32721        -1.05471         1.98425
H           4.75286        -1.62643         0.18077
H           6.89375        -3.44053         1.37772
H           7.80255         1.68591         1.76738

