%chk=Odc1ccccc2cqcnnc1rdCCqOrdCdCd2.chk
%NProcShared=20
# opt freq b3lyp/6-31g(2df,p)

Title Card Required 

0  1
O           2.42627         0.40322         0.52743
C           3.47022        -0.06534         0.06901
C           3.25739        -1.11274        -0.95572
C           4.45562        -1.46857        -1.30385
C           5.02871        -2.37576        -2.19141
C           6.33759        -2.27468        -2.09251
C           7.48782        -2.81649        -2.62261
C           8.73898        -2.31739        -2.13431
C           8.69000        -1.09568        -0.93903
N           7.86102        -0.32790        -0.18786
N           6.43349         0.24833         0.37589
C           5.08148         0.44968         0.57288
C           9.81904        -2.90185        -2.70612
C          10.41834        -3.82403        -3.60833
O          11.64575        -3.15708        -2.95583
C           8.75546        -4.06163        -3.84080
C           7.66484        -3.74184        -3.52793
H           2.34495        -1.52797        -1.36197
H           5.21685        -0.94486        -0.79148
H           4.44313        -3.00853        -2.81048
H           6.67137        -1.54254        -1.37622
H           9.78555        -0.88872        -0.73655
H           4.87451         1.23591         1.34210
H          10.25794        -3.93606        -3.71794
H          11.44866        -2.45030        -2.26433

