%chk=Odc1ccccccc2cc3c-2ccc-3c1.chk
%NProcShared=20
# opt freq b3lyp/6-31g(2df,p)

Title Card Required 

0  1
O           3.03386         0.85956         0.16191
C           4.15203         1.69810         0.65983
C           3.17300         0.95654         1.62208
C           4.37823         0.47103         1.83125
C           5.05772         1.08025         2.91894
C           6.44938         0.89206         2.81795
C           7.31522         1.49010         3.84188
C           8.69530         1.59030         3.49294
C           9.88425         2.39403         4.17451
C          10.27800         3.62082         3.71457
C           8.80296         3.90049         3.64037
C           9.08444         3.10088         4.94423
C           8.68756         3.68282         6.11706
C           7.69573         4.03533         4.80857
C           7.02865         3.44331         2.85218
C           5.86783         2.68117         1.64717
H           2.35618         1.50288         2.07869
H           5.07797        -0.04042         1.03335
H           4.52948         2.12445         3.18272
H           7.05933         0.87630         1.72546
H           6.61090         2.43238         4.36595
H           9.09496         1.68379         2.46417
H          11.03951         3.69351         2.97443
H           8.84175         3.46985         7.37377
H           8.90375         4.72102         5.50901
H           5.67524         1.75394         0.44679

