%chk=OdC1CdNc2ccc3cqc2dC1rdCCdC3.chk
%NProcShared=20
# opt freq b3lyp/6-31g(2df,p)

Title Card Required 

0  1
O           1.06969         0.12743         0.04868
C           2.28318         0.05865         0.04986
C           3.12951         1.29799         0.04788
N           4.42713         1.30421         0.05086
C           5.09382         0.10006         0.05290
C           6.44902         0.03770         0.05001
C           7.19793        -1.23159         0.04748
C           6.53758        -2.40019         0.05148
C           5.08436        -2.39097         0.05757
C           4.33007        -1.16378         0.05529
C           2.99500        -1.20841         0.05350
C           4.68380        -3.67166         0.06441
C           5.85492        -4.52759         0.06147
C           6.97357        -3.77527         0.05214
H           2.55346         2.23518         0.04330
H           7.03686         0.95226         0.04818
H           8.28230        -1.18005         0.04260
H           2.40674        -2.11365         0.05365
H           3.66555        -4.02502         0.07018
H           5.76285        -5.60266         0.06610
H           7.99447        -4.11635         0.04693

