%chk=Odc1ccc2c3ccqnncn1rCqdCd2rCCCd3.chk
%NProcShared=20
# opt freq b3lyp/6-31g(2df,p)

Title Card Required 

0  1
O           2.96775        -0.14292        -0.63955
C           4.02197        -0.10832         0.05659
C           3.63269         0.03750         1.60408
C           4.81204         0.13722         2.25172
C           5.92470         0.27913         3.43309
C           7.13949         0.80551         3.10017
C           8.04728         0.02755         3.72447
C           8.58291        -1.04867         3.21645
N           9.13203        -0.54391         1.91484
N           8.37930        -0.18008         0.87147
C           7.09104        -0.19253         0.00292
N           5.65841        -0.16948        -0.41645
C           8.31683        -1.01343         4.42584
C           6.37494        -0.72315         4.40157
C           9.98063        -0.00518         4.41757
C           9.41372         1.18332         5.08016
C           8.20255         1.65121         3.59428
H           2.56837         0.07976         1.96249
H           5.42728         0.06990         1.40604
H           7.63797         0.47892         5.09804
H           7.77165        -0.16851        -0.91964
H          10.78188         0.90077         4.11876
H          10.82943        -0.65016         4.73494
H          10.17181         1.81899         5.59519
H           9.58002         0.36859         5.90337
H           8.38711         1.36560         2.44021

