%chk=OdC1CdCqCdSrCdCSCd[SH]CdCCC1.chk
%NProcShared=20
# opt freq b3lyp/6-31g(2df,p)

Title Card Required 

0  1
O           3.00269        -0.12671         0.20194
C           4.65920        -0.41127         0.45319
C           3.16498        -0.49601         1.37860
C           4.45982        -0.53551         1.56912
C           5.89587        -0.21790         1.02516
S           5.11851         0.31343        -1.30118
C           5.14037        -0.89195         2.67675
C           6.43646        -0.95469         2.88719
S           7.36090        -1.36158         4.16938
C           8.99815        -1.31342         4.00374
S           9.92408        -1.64721         5.34608
C          11.03665        -1.42866         4.45085
C          11.61358        -1.19874         3.46864
C           9.71692        -0.78030         1.96877
C           7.35164        -0.45605         0.91851
H           2.51979        -0.74709         2.20523
H           6.80156         0.05340        -0.38569
H           4.60139        -1.14253         3.47942
H           7.21497        -0.73311         2.34675
H           8.91057        -0.92972         3.13168
H          10.05728        -2.90409         5.32777
H          10.80798        -0.99189         3.55748
H          12.43734        -1.64726         5.03455
H          11.36009        -1.43826         2.37855
H          11.45177        -0.54295         2.49490
H           6.03032        -0.93077        -0.22069
H           6.07418         0.73754         0.19424

