%chk=Odc1cc[nH]c2cc-2c2cqn1rNdCCdNCdCCdCCdC2.chk
%NProcShared=20
# opt freq b3lyp/6-31g(2df,p)

Title Card Required 

0  1
O           1.33122        -0.03252         0.21161
C           2.83972        -0.14786         0.32494
C           3.01603         0.71273        -0.95291
C           4.26719         0.79979        -1.08664
N           4.98640         1.36901        -1.97349
C           6.02222         0.98868        -1.32089
C           7.15714         1.06068        -1.44504
C           6.34610        -0.04680         0.42786
C           5.55337        -0.98971         2.22002
C           6.23779        -1.17799         1.22706
N           4.47919        -0.73809         1.14037
N           6.71012        -1.42740         2.59827
C           7.43495        -2.09999         3.33771
C           7.05029        -2.75725         4.46854
N           7.89240        -3.20599         5.19147
C           6.85464        -3.63810         5.76289
C           7.49239        -4.33509         6.94307
C           6.18067        -4.22206         6.82533
C           6.19970        -4.86010         7.85407
C           5.28145        -3.62480         6.14685
C           5.21879        -2.38717         4.25872
H           2.40981         1.20399        -1.71846
H           4.81206         0.31851        -0.33834
H           4.61033         1.86326        -2.75136
H           7.31442         2.01005        -2.97028
H           8.40392        -1.97856         3.23115
H           6.09625        -3.10056         4.85478
H           5.02209        -3.31575         5.11371
H           8.35762        -4.64325         7.44163
H           4.63448        -4.88014         7.87884
H           7.35595        -5.55617         8.87808
H           5.52971        -4.80035         7.59291
H           4.79740        -1.75733         2.91212

