%chk=OdC1CdCNdc2ccccc2dCCdCCdNC1.chk
%NProcShared=20
# opt freq b3lyp/6-31g(2df,p)

Title Card Required 

0  1
O           0.89543        -0.67382         0.38458
C           2.11818        -0.51985         0.46482
C           2.89577        -1.89741         0.36628
C           4.19746        -2.20085         0.43500
N           5.04177        -3.24420         0.29269
C           6.31346        -2.87402         0.25619
C           7.21165        -4.03209         0.47978
C           8.50165        -3.89362         0.78748
C           9.18864        -2.63840         0.65813
C           8.55143        -1.52716         0.25963
C           7.07247        -1.43252         0.14391
C           6.58790        -0.14613        -0.02146
C           5.22406         0.43145        -0.23337
C           4.60957         1.67266        -0.35007
C           2.60179         2.06423        -0.63243
N           1.92244         2.46524         0.38516
C           2.77032         0.96287         0.31845
H           2.19484        -2.71516         0.25695
H           4.81635        -1.44201         0.79664
H           6.69596        -4.98438         0.47376
H           9.07551        -4.77558         1.04971
H          10.26746        -2.65090         0.80554
H           9.14269        -0.64394         0.01602
H           7.30918         0.66937        -0.02334
H           4.47616        -0.30876        -0.35326
H           5.06351         2.56274        -0.16968
H           1.72817         0.98369        -1.11547
H           3.34986         1.40442         1.26280
H           3.36030         0.71927        -1.17801

