%chk=OdC1NdCC2dCdCC2dCCdCC2dC3CdCCdCC132.chk
%NProcShared=20
# opt freq b3lyp/6-31g(2df,p)

Title Card Required 

0  1
O          -0.44988         2.31345         1.11702
C           0.48781         3.05900         1.43191
N           1.88576         2.07095         0.99319
C           3.22051         1.61060         0.70599
C           4.62870         2.20535         0.68977
C           5.88475         2.29243         0.62653
C           6.68514         3.15819         0.78311
C           5.15265         3.83073         1.03362
C           3.85208         4.16506         1.02077
C           2.96846         5.16594         1.37919
C           1.74644         5.11560         0.88011
C           0.85457         5.72827         1.73758
C           0.08845         6.43494         0.95915
C          -0.10646         7.94145         1.36424
C          -1.10105         8.36072         2.15114
C          -1.79631         7.25536         2.79550
C          -1.53556         5.83852         2.74917
C          -0.24599         4.89067         1.85327
H           3.49311         0.53717         0.27558
H           7.71533         2.76812         0.87033
H           3.13376         3.54171         0.52568
H           3.13739         5.96935         2.05480
H           1.21937         4.49867         0.11504
H           0.41887         8.79914         0.90108
H          -1.36446         9.45720         2.28631
H          -2.56433         7.79796         3.39585
H          -2.23920         5.40296         3.45790

