%chk=OdCc1ccccc2[c]ccccccc1-2.chk
%NProcShared=20
# opt freq b3lyp/6-31g(2df,p)

Title Card Required 

0  2
O           1.23394         0.17125         0.08857
C           2.43813         0.18853        -0.22890
C           3.42566         1.54247        -0.03952
C           2.85083         1.70094         1.67936
C           3.05303         2.58347         2.69619
C           4.00453         3.57607         2.56901
C           4.66456         3.65148         1.45796
C           4.88878         2.80734         0.30398
C           5.87425         3.37641         0.00017
C           6.86142         4.29553        -0.12554
C           7.89227         3.94561        -0.83291
C           8.61846         5.10621        -1.22725
C           8.59338         4.82813        -2.55506
C           7.03483         4.07794        -2.98884
C           5.66132         3.10688        -2.25846
C           4.71028         2.16982        -1.00090
H           2.89877        -0.79539        -0.44347
H           2.01249         1.03641         2.07774
H           2.52561         2.67077         3.65700
H           4.22682         4.32736         3.31218
H           5.39953         4.45780         1.61394
H           6.71567         5.17861         0.42607
H           7.93760         3.00856        -1.55659
H           8.49686         6.07660        -0.66383
H           9.41466         4.91615        -3.41737
H           7.57520         5.26622        -3.18623
H           5.80675         2.11445        -2.64476

