%chk=OdCCSSc1ccc2cccccc1-2.chk
%NProcShared=20
# opt freq b3lyp/6-31g(2df,p)

Title Card Required 

0  1
O           1.18450        -0.00096        -0.06909
C           2.42052         0.00244        -0.06983
C           3.23860         0.98613        -0.87818
S           5.04428         0.67522        -0.62971
S           5.97701         2.07862        -1.83981
C           7.68071         1.88545        -1.52792
C           8.35617         0.59021        -1.49481
C           9.67869         0.76299        -1.32208
C           9.91319         2.19548        -1.27322
C          11.13077         2.73919        -1.13208
C          11.49376         4.13824        -1.11583
C          10.70785         5.21388        -1.24319
C           9.27765         5.28484        -1.41724
C           8.37353         4.29838        -1.49525
C           8.61586         2.87591        -1.43006
H           2.96148        -0.73751         0.53926
H           2.97196         1.99226        -0.54022
H           2.96829         0.84943        -1.93006
H           7.86731        -0.36232        -1.62312
H          10.43886        -0.00071        -1.27012
H          11.99068         2.07742        -1.02278
H          12.56301         4.32108        -0.99253
H          11.19545         6.18972        -1.21204
H           8.90070         6.30491        -1.49036
H           7.33768         4.60000        -1.62422

