%chk=OdCC1dNSCdNCdC[SH]dCSNCdCCdCCdC1.chk
%NProcShared=20
# opt freq b3lyp/6-31g(2df,p)

Title Card Required 

0  1
O           3.23675        -0.66194         1.03058
C           5.02058        -1.19689         1.73639
C           7.21997        -2.37545         3.29128
N           5.99941        -1.38871         1.98946
S           5.38721        -2.17691         3.02781
C           7.25535        -1.33288         1.91470
N           8.38374        -1.87654         2.63176
C           9.45207        -1.82369         2.56410
C          10.41832        -2.22287         3.09721
S          11.99650        -2.21103         3.06391
C          12.67778        -3.05928         4.19560
S          14.62200        -3.07296         4.21075
N          15.00215        -3.91271         5.31684
C          16.55500        -4.11744         5.58720
C          16.53742        -4.77183         6.44450
C          17.02787        -5.22132         7.04571
C          14.76915        -4.89535         6.61517
C          12.09839        -4.16426         5.65107
C           9.83809        -3.41923         4.66853
H           3.69732        -0.19288         0.41196
H           7.42048        -0.76522         1.16660
H           9.69075        -1.27217         1.83486
H          10.19961        -2.68320         3.68774
H          12.32642        -0.99693         3.31118
H          11.47636        -3.52799         4.80802
H          13.71636        -3.73976         5.08845
H          17.35893        -3.80724         5.17832
H          15.72490        -5.76597         7.75556
H          18.92199        -4.85637         6.56200
H          16.60044        -5.56030         7.49266
H          13.85641        -4.68043         6.33194
H           8.11560        -3.16053         4.32542

