%chk=OdCC1dS2CSCdCCdC2CdCCdCCdC1.chk
%NProcShared=20
# opt freq b3lyp/6-31g(2df,p)

Title Card Required 

0  1
O           0.89621         0.51389         0.45774
C           2.03780         0.19793         0.59042
C           2.93060         0.10212        -0.60920
S           4.59089         0.81529        -0.66315
C           4.99101         2.50696        -0.39548
S           6.77060         2.81390        -0.82042
C           6.68776         3.06939        -2.52464
C           6.00092         2.35272        -3.42258
C           5.49455         1.00894        -3.28844
C           5.13954         0.26933        -2.23122
C           5.14177        -1.18282        -2.35468
C           5.12647        -1.96778        -1.25520
C           4.51199        -3.28418        -1.24116
C           3.35428        -3.19978        -0.54905
C           2.30556        -2.36491        -1.15582
C           2.37700        -1.03831        -1.48137
H           2.47689        -0.30731         1.47564
H           4.98653         2.66095         0.69260
H           4.35375         3.28119        -0.82643
H           7.30524         3.87905        -2.91097
H           6.06419         2.68227        -4.46199
H           5.58085         0.47766        -4.23951
H           5.03529        -1.60130        -3.34848
H           5.08841        -1.51733        -0.25830
H           4.43979        -3.62849        -2.27654
H           3.36456        -3.14966         0.53953
H           1.36498        -2.80957        -0.82444
H           1.91374        -0.66430        -2.38884

