%chk=OdCC1dCdC2CdC2NdC2SNSSCdC12.chk
%NProcShared=20
# opt freq b3lyp/6-31g(2df,p)

Title Card Required 

0  1
O           2.17713        -1.04899        -0.82417
C           3.33908        -0.80400        -1.22764
C           4.55790        -2.05810        -1.60178
C           4.82040        -1.98419        -0.35579
C           5.77729        -1.17480        -0.03520
C           6.93301        -0.97916         0.45983
C           7.06481        -2.19422        -0.05300
N           6.43931        -3.61724        -0.39844
C           5.99962        -3.88212        -1.67229
S           5.25556        -5.35568        -2.68470
N           5.36635        -4.92033        -4.42569
S           6.79539        -4.69653        -5.25083
S           8.02585        -5.02509        -3.73584
C           7.38719        -3.48270        -2.60986
C           6.00627        -2.73058        -2.57571
H           3.71449         0.13040        -0.66765
H           7.18444         0.01030         0.86289
H           4.88213        -4.04860        -4.59355
H           8.48655        -3.36650        -2.57811

