%chk=OdCC1dc2cccqnn[nH]cn2rdCCdC1.chk
%NProcShared=20
# opt freq b3lyp/6-31g(2df,p)

Title Card Required 

0  1
O           1.08601        -0.04978         0.14286
C           2.35256        -0.23032         0.27965
C           3.28200        -1.61518         1.32873
C           4.35751        -1.07082         0.91621
C           5.56036        -1.37770         1.15015
C           6.73632        -1.69301         1.38754
C           7.01104        -3.02972         2.40088
N           6.48402        -4.56154         3.56171
N           5.33699        -4.38827         3.43054
N           4.31424        -4.78941         3.73449
C           3.35154        -3.68053         2.89452
N           3.56128        -2.12516         1.71628
C           8.41146        -3.04448         2.41201
C           6.55554        -3.24469         2.56367
C           4.65244        -2.90867         2.30879
H           2.83245         0.65573        -0.39178
H           5.73740        -2.11138         1.70525
H           7.30229        -1.07698         0.92125
H           4.77906        -5.54447         4.30661
H           2.49934        -4.53709         3.54330
H           9.04670        -2.29367         1.84322
H           7.93752        -3.97650         3.11885
H           2.79280        -2.81880         2.24072

