%chk=OdCC1dNCdCCdCdCdCCdCCdCCdC2SN2CdC1.chk
%NProcShared=20
# opt freq b3lyp/6-31g(2df,p)

Title Card Required 

0  1
O           3.40719        -0.19176        -0.25021
C           4.97128         0.21495        -0.03547
C           7.24119         0.01383        -0.29021
N           5.79055        -0.82745        -0.68928
C           5.28817        -2.14325        -1.30471
C           6.52388        -2.42519        -1.46287
C           7.26906        -3.30902        -2.16604
C           8.58075        -3.26416        -2.13660
C           9.79723        -3.23967        -2.12205
C          11.11998        -3.23040        -2.11530
C          11.91636        -2.12382        -1.68806
C          13.22175        -2.20096        -1.70102
C          13.95831        -1.15082        -1.48354
C          15.21667        -1.11410        -1.64429
C          15.63247         0.50664        -1.37165
C          15.56427         1.09343        -0.14271
S          16.28409        -0.17413        -0.06660
N          13.88878         0.34275         0.03587
C          11.69148         0.35060        -0.21527
C           9.65914         0.12368        -0.25216
H           3.52876         0.69448         0.50176
H           4.47514        -2.82935        -1.86051
H           7.11867        -1.83890        -0.81885
H           6.63695        -4.02311        -2.65591
H          11.71471        -4.09118        -2.45061
H          11.41659        -1.23701        -1.37335
H          13.86412        -2.95477        -2.00378
H          13.38791        -0.30260        -1.36957
H          16.01881        -1.83534        -1.60217
H          14.90141         1.36544        -1.39401
H          13.03532         1.03639        -0.01629
H           8.48731        -0.41133        -0.94616

