%chk=OdCCdCC1dCCqCdOrdCNNdC1.chk
%NProcShared=20
# opt freq b3lyp/6-31g(2df,p)

Title Card Required 

0  1
O           0.97363         0.06283        -0.01355
C           2.19901         0.04266         0.00252
C           2.94606        -0.72703        -1.00624
C           4.28734        -0.74146        -1.06876
C           5.01243        -1.41767        -2.14785
C           4.57347        -1.27621        -3.40732
C           5.10262        -1.80400        -4.63481
C           4.36181        -1.49406        -5.89981
O           4.70981        -1.85950        -7.01736
C           6.21428        -2.53809        -4.74274
N           7.09971        -2.98112        -3.79741
N           7.12811        -2.84474        -2.45833
C           6.24480        -2.18466        -1.78521
H           2.79137         0.60615         0.73921
H           2.32126        -1.25074        -1.72285
H           4.89309        -0.21377        -0.33383
H           3.68206        -0.66946        -3.55998
H           3.44775        -0.88987        -5.76491
H           6.52869        -2.87205        -5.73223
H           7.86807        -3.53557        -4.18317
H           6.43927        -2.18781        -0.69657

