%chk=OdCdNC1dc2ccccc[c]ccc2dC1.chk
%NProcShared=20
# opt freq b3lyp/6-31g(2df,p)

Title Card Required 

0  2
O           1.09058         0.07511        -0.02934
C           2.31234         0.04023         0.00807
N           3.57931         0.05271        -0.00531
C           4.90046        -0.86366         0.97747
C           6.73463        -0.93176         1.05051
C           7.67108        -1.81228         1.99484
C           7.42826        -2.54395         2.77953
C           8.35015        -3.19181         3.47434
C           9.32016        -2.81834         3.07381
C          10.30004        -3.72002         4.04084
C          11.12909        -2.94609         3.21081
C          11.66920        -3.74376         4.06629
C          10.78162        -2.55076         2.78684
C           8.41288        -1.91595         2.10602
C           6.21278        -1.61013         1.77804
H           6.30364        -2.55813         2.79474
H           8.36758        -1.17989         1.31662
H           7.69021        -3.52820         3.83511
H          10.05489        -1.74694         1.92476
H           9.93802        -4.34297         4.70892
H          12.11764        -4.78711         5.18525
H          12.42386        -3.10768         3.38411
H           4.57978        -1.92482         2.11553

