%chk=OdCdCC1dCCdCCdCCdCC2dCS2dC1.chk
%NProcShared=20
# opt freq b3lyp/6-31g(2df,p)

Title Card Required 

0  1
O           1.81961        -0.31395         0.29009
C           2.81946        -0.80660         0.71622
C           4.08991        -1.20256         0.94650
C           5.34211        -2.12953         2.10077
C           6.02186        -1.30416         1.17351
C           7.23170        -1.59180         1.42594
C           8.47288        -1.51608         1.39770
C           8.98227        -2.45567         2.22927
C          10.25251        -2.37659         2.04824
C          11.14781        -3.31081         2.35178
C          11.63297        -3.85906         3.39040
C          10.31685        -4.90613         3.66012
C          10.57030        -5.09998         4.88680
S           8.44606        -4.60553         4.20605
C           6.44180        -3.51505         2.99947
H           4.46341        -0.24545         0.22380
H           6.04964        -0.51296         0.43848
H           7.08284        -2.38271         2.01875
H           8.96766        -0.87274         0.78224
H           8.44757        -3.26327         2.65994
H          10.75573        -1.63095         1.55147
H          10.36627        -3.27306         3.10792
H          12.70307        -3.77827         3.09340
H          11.97094        -5.18466         4.69298
H           5.62055        -4.04211         3.51149

