%chk=OdCN[N][C]C1dCdc2ccccc2dN1.chk
%NProcShared=20
# opt freq b3lyp/6-31g(2df,p)

Title Card Required 

0  2
O           0.82499         0.15941         0.11277
C           2.07604         0.12327         0.12698
N           2.87767         0.71913         1.04724
N           4.22002         0.31533         0.96977
C           5.12167         0.95891         1.87710
C           6.40138         1.56742         2.26049
C           7.08158         2.23167         3.23352
C           7.76178         2.89591         4.20655
C           7.54548         4.21087         4.45717
C           8.40314         4.71594         5.34686
C           9.25205         3.71425         5.86746
C           9.28075         2.15949         5.45625
C           8.35831         1.75332         4.36465
N           7.56255         0.75958         3.22970
H           2.64081        -0.41769        -0.64425
H           2.52990         1.22184         1.85456
H           6.73364         4.73446         3.95390
H           8.32823         5.77474         5.58724
H           9.90067         4.10299         6.65547
H           9.93139         1.53410         6.04671

