%chk=OdCqOrCCC1dCCdCCdCCdCCdCS1.chk
%NProcShared=20
# opt freq b3lyp/6-31g(2df,p)

Title Card Required 

0  1
O           1.08560         0.08124         0.01182
C           2.32610         0.07345         0.00566
O           3.00837        -0.85772        -0.73082
C           3.17534         1.16631         0.87003
C           5.20014         1.56126         1.18240
C           6.62539         2.99340         2.31511
C           6.85907         1.92288         1.46842
C           7.65823         2.76615         2.13537
C           8.94193         2.78073         2.14691
C          10.18249         3.70862         2.88079
C          11.38980         3.63323         2.82116
C          10.73578         4.37546         3.40821
C          12.42108         4.71326         3.67538
C          13.10193         5.93470         4.64145
C          11.46740         5.31737         4.15318
S           8.74566         4.51791         3.52088
H           3.98229        -0.87486        -0.74437
H           2.82230         1.01169         1.87681
H           2.82230         2.11040         0.48766
H           4.91269         1.07830        -0.29930
H           4.91269         0.00815         1.05373
H           7.26865         1.18514         0.88492
H           7.55794         3.68741         2.86402
H           9.41645         2.14824         1.64665
H           9.85692         5.12264         3.99917
H          11.63620         3.02005         2.33618
H          10.47348         5.84749         4.57247
H          13.54830         4.29553         3.34499
H          13.26657         6.80239         5.32772
H          13.29197         5.57978         4.36073

