%chk=OdNNd[SH]Nn1c2cccc-2cccc1dO.chk
%NProcShared=20
# opt freq b3lyp/6-31g(2df,p)

Title Card Required 

0  1
O           1.25282        -0.08238        -0.19618
N           2.48826        -0.04653        -0.13200
N           3.12213        -0.68038        -1.27003
S           4.61016        -0.41189        -1.16578
N           5.25778        -1.20899        -2.46157
N           6.71865        -1.41913        -2.58933
C           7.06952        -2.09004        -3.85009
C           6.59908        -1.90250        -5.12403
C           7.24490        -2.83884        -6.07070
C           8.10049        -3.63351        -5.41073
C           8.04697        -3.21664        -4.03237
C           8.71132        -3.82088        -3.03836
C           8.15093        -3.49530        -1.78054
C           8.43214        -2.54849        -0.86755
C           7.53439        -1.37178        -1.26495
O           7.56759        -0.40099        -0.49659
H           4.92139        -1.20961        -0.16491
H           4.69190        -1.62751        -3.20063
H           5.88949        -1.17122        -5.49116
H           7.06547        -2.89874        -7.13701
H           8.70429        -4.44695        -5.78141
H           9.38554        -4.67141        -3.13050
H           7.07348        -3.51268        -1.85981
H           9.23782        -2.70519        -0.14553

