%chk=ON1CdCCdCCdCCdCNdCCd[C-]S1.chk
%NProcShared=20
# opt freq b3lyp/6-31g(2df,p)

Title Card Required 

-1  1
O           3.38485         0.49334         0.36752
N           5.45695         0.96583         0.75825
C           3.60702         1.28630         1.02328
C           5.01392         1.22374         0.97154
C           5.04837         2.35301         1.90544
C           6.13702         2.75483         2.23774
C           7.09253         3.42197         2.78946
C           8.35240         3.37563         2.75114
C           8.84713         4.29905         3.51480
C          10.07533         4.20630         3.43809
N          11.02824         5.06848         4.15111
C          12.68612         4.83481         3.95787
C          11.64222         3.96408         3.23778
C          10.04868         2.81309         2.28592
S           7.95294         1.54107         1.23398
H           1.93086         0.67911         0.52114
H           2.72557         1.89914         1.53009
H           5.51089        -0.04775        -0.07997
H           4.47924         2.95148         2.40037
H           7.04733         2.63669         2.14004
H           6.69959         4.08143         3.33483
H           8.90003         2.42066         1.96138
H           8.77734         5.05460         4.13963
H          11.25823         3.08424         2.51016
H          13.57708         4.26115         3.48345
H          12.39742         5.14190         4.21183

