%chk=ONNdC1CdCCdCNdCSNdNS1.chk
%NProcShared=20
# opt freq b3lyp/6-31g(2df,p)

Title Card Required 

0  1
O           1.35239        -0.27426         0.07460
N           3.14944        -0.20955         0.03134
N           4.67855        -1.03524         0.58334
C           6.43410        -1.03220         0.58131
C           5.41620        -2.31064         1.43598
C           6.55666        -2.69503         1.69296
C           6.91702        -3.72964         2.38463
C           8.11294        -4.03452         2.58845
N           8.85208        -4.91518         3.17720
C           9.94554        -4.40495         2.83609
S          11.31743        -5.12562         3.31788
N          11.71014        -3.60848         2.30363
N          10.85823        -2.40954         1.50210
S           8.80920        -1.48717         0.88547
H           0.87855         0.51269        -0.45150
H           3.08148         0.63056        -0.53030
H           4.52492        -2.89145         1.82427
H           7.28853        -2.18022         1.34879
H           6.30119        -4.35922         2.80552
H           8.53200        -3.26520         2.07414
H           9.90307        -3.47058         2.21143

