%chk=OOc1nc2cqncc1dSrdCCd2.chk
%NProcShared=20
# opt freq b3lyp/6-31g(2df,p)

Title Card Required 

0  1
O           1.00201        -0.20887        -0.15515
O           2.44173        -0.45704        -0.29033
C           2.82001         0.59710         0.28387
N           4.11263         0.88114         0.43859
C           5.21056         2.33733         1.23180
C           6.58181         2.22776         1.17212
N           6.92352         1.10018         0.55791
C           5.75258         0.59196         0.28107
C           3.76883         1.39514         0.71858
S           2.40110         2.53391         1.33888
C           6.75516         3.38143         1.80053
C           5.30002         3.50152         1.86595
H           0.70302        -1.00957        -0.59130
H           5.70889        -0.39036        -0.25401
H           7.72184         3.83583         2.04805
H           4.38907         4.03268         2.15528

