%chk=SC1dCNdc2ccscc[nH]c2dCS1.chk
%NProcShared=20
# opt freq b3lyp/6-31g(2df,p)

Title Card Required 

0  1
S           0.96443         0.04409        -0.08622
C           2.66097         0.17664        -0.19210
C           3.75949         1.15284        -0.97188
N           5.75788         1.16996        -0.98555
C           6.11992         2.12717        -1.75016
C           7.37864         1.69668        -1.40629
C           8.28098         2.36705        -1.94178
S           9.86517         2.17262        -1.78647
C           9.59367         3.52742        -2.86867
C          10.73362         3.90289        -3.16860
N           8.77989         3.93931        -3.19769
C           6.60421         3.42705        -2.78850
C           5.06495         2.56280        -2.09814
S           4.08248         0.74990        -0.65001
H           0.47633         1.00157        -0.85105
H           2.79938         1.82243        -1.50674
H           7.57758         0.91487        -0.78179
H           7.90198         3.16478        -2.57900
H           9.19242         4.87871        -3.94807
H          11.85793         3.28630        -2.67607
H          10.16343         4.53667        -3.67486
H           3.89835         2.93329        -2.39409

