%chk=SC1dCqSrCqCt[SH]rdCCdCCdCCdNCdC1.chk
%NProcShared=20
# opt freq b3lyp/6-31g(2df,p)

Title Card Required 

0  1
S           2.40251         0.02386         0.21107
C           4.66648        -0.41300         0.88234
C           3.51324        -0.49107         1.43746
S           2.67059        -0.99994         2.69642
C           5.07544        -0.37587         1.13379
C           5.83544         0.11546        -0.08743
S           6.61175         0.61734        -1.33486
C           5.69658        -0.89552         2.43360
C           7.05510        -1.03704         2.72976
C           7.65278        -1.41044         3.68559
C           8.96731        -1.51499         3.60044
C           9.79681        -1.74774         4.52419
C           9.87859        -1.09712         2.91078
N          10.43684        -1.45718         3.93226
C           8.84638        -0.68356         2.45938
C           6.91054        -0.28296         1.23788
H           0.77327        -0.37058         1.12233
H           1.34709        -0.87547         2.37615
H           5.78552         0.59600        -2.40541
H           5.17043        -1.18720         3.15114
H           8.12468        -0.58652         1.53113
H           7.28682        -1.68966         4.40349
H           9.74793        -0.78588         1.76108
H           9.54842        -2.09724         5.42270
H          11.87185        -1.09219         2.91097
H          10.87584        -1.16634         3.24229
H           4.89166         0.27883         0.31958

