%chk=SC1dCCdCc2n[nH]cc2CdCSSC1.chk
%NProcShared=20
# opt freq b3lyp/6-31g(2df,p)

Title Card Required 

0  1
S           1.11763         0.04838         0.07138
C           2.83801         0.22543         0.32197
C           3.51331         1.38466         0.30277
C           4.98963         1.35629         0.31191
C           5.75601         2.16949         0.98522
C           7.16887         1.97734         1.24555
N           8.02758         1.68930         0.26656
N           9.22474         1.71209         0.86413
C           9.16723         1.88170         2.22266
C           7.82412         1.99760         2.53088
C           7.21593         1.92156         3.85142
C           5.86713         1.78831         3.93349
S           5.01566         0.35762         4.47991
S           3.45245        -0.06597         3.03584
C           3.58086        -0.89270         1.06571
H           0.61041         1.05733         0.79088
H           2.98490         2.27240         0.65386
H           5.48192         0.50360        -0.18051
H           5.27468         3.00319         1.49923
H          10.03864         1.59414         0.26905
H          10.08125         1.85561         2.80302
H           7.88838         1.68357         4.68196
H           5.28046         2.28062         3.19886
H           3.01046        -1.82766         0.98789
H           4.54574        -1.06245         0.56705

