%chk=SCC1dCCdC2CdC2SCdCS1.chk
%NProcShared=20
# opt freq b3lyp/6-31g(2df,p)

Title Card Required 

0  1
S           0.89035        -0.03540         0.01932
C           2.66038        -0.06744        -0.12215
C           3.71954         0.16612         0.91090
C           4.65278         0.36639         1.79911
C           5.08737         0.66014         3.09950
C           6.37491         0.69183         3.23986
C           7.36791         0.88750         4.10638
C           7.82542         0.60948         2.87518
S           7.80829         0.25797         1.31852
C           7.94643        -0.09747        -0.25555
C           6.79964        -0.25643        -0.95948
S           5.04905        -0.19860        -0.70341
H           0.64891        -0.33194        -1.29387
H           2.84276         0.73025        -0.86439
H           2.84276        -1.10650        -0.44964
H           5.58633         0.26603         1.35421
H           4.40510         0.84177         3.90384
H           7.30645         1.11720         5.12357
H           9.01138        -0.16499        -0.55457
H           7.00890        -0.49289        -2.00664

