%chk=SCCC1dC2CdCqCdc3ccccc3dC2rSNdC1.chk
%NProcShared=20
# opt freq b3lyp/6-31g(2df,p)

Title Card Required 

0  1
S           1.02660        -0.12237         0.01605
C           2.84846        -0.06004        -0.05292
C           3.44385        -1.45616        -0.28102
C           4.97736        -1.43269        -0.36617
C           5.89025        -1.42087        -1.38773
C           7.14345        -1.61186        -0.97315
C           8.20897        -1.56047        -0.19082
C           9.27117        -1.50920        -1.18017
C           9.08697        -1.42088        -2.55200
C          10.38704        -1.41545        -3.23607
C          10.49997        -1.21204        -4.54589
C           9.32651        -1.21771        -5.38867
C           8.04350        -1.35108        -4.94867
C           7.65744        -1.35464        -3.46220
C           6.26723        -1.35630        -2.96702
S           8.17502        -1.27698         1.43619
N           6.58112        -1.46074         1.85437
C           5.49536        -1.48737         1.14614
H           0.81050         1.20149         0.09560
H           3.19659         0.38020         0.89056
H           3.14547         0.60358        -0.86631
H           2.99628        -1.95927        -1.14166
H           3.13096        -2.08238         0.58062
H           7.35920        -2.52195        -1.54734
H          10.26688        -1.53370        -0.74872
H          11.29529        -1.55861        -2.65190
H          11.49815        -1.14339        -4.98194
H           9.59269        -1.19871        -6.44739
H           7.29535        -1.50353        -5.72270
H           5.39824        -1.38237        -3.63247
H           4.63937        -1.53343         1.84918

