%chk=SdC1CdCCdCd[SH]c2ccccc2SS1.chk
%NProcShared=20
# opt freq b3lyp/6-31g(2df,p)

Title Card Required 

0  1
S           2.60140        -0.80853         1.00617
C           3.80618        -1.50270         0.01010
C           3.65848        -1.27421        -1.43742
C           4.78478        -0.73123        -1.87901
C           5.65236        -1.60761        -2.61225
C           6.93376        -1.43928        -2.31769
S           8.44345        -1.41470        -1.86678
C           8.59390        -2.97747        -2.66986
C           9.28942        -2.95679        -3.92568
C           9.40182        -4.07891        -4.72678
C           9.01372        -5.27937        -4.15510
C           8.37146        -5.31938        -2.85097
C           7.98710        -4.12643        -2.12762
S           6.50387        -4.15451        -0.67492
S           5.52447        -2.32269         0.56273
H           2.99178        -1.97967        -1.92054
H           5.33827        -0.03947        -1.22195
H           5.28150        -2.63412        -2.71796
H           8.44290        -1.93491        -0.65233
H           9.71363        -2.02532        -4.30223
H           9.82264        -4.00978        -5.73503
H           9.22490        -6.18176        -4.74094
H           8.27561        -6.32433        -2.44059

