%chk=Sdc1[c]csc2c1CdNCdCCdCCdCS2.chk
%NProcShared=20
# opt freq b3lyp/6-31g(2df,p)

Title Card Required 

0  2
S           1.24644        -1.32951        -0.18540
C           2.50598        -2.75112        -0.68449
C           3.29816        -0.95014        -0.33169
C           4.05718         0.26487         0.22565
S           4.74923        -1.55718         0.41550
C           3.46537        -3.23293        -0.47104
C           2.82236        -4.69498        -1.11901
C           2.68919        -6.80029        -1.93816
N           3.17840        -8.45395        -1.93590
C           3.92961        -9.35974        -1.00872
C           3.50977        -8.59097        -0.03782
C           4.69136        -7.75491        -0.39183
C           4.22980        -6.55906        -0.38544
C           5.24054        -5.68145        -0.16634
C           5.08237        -4.47743         0.04220
S           5.51017        -3.04250         0.32242
H           4.79430         1.55287         0.26356
H           2.30220        -8.28021        -1.95370
H           4.63337       -10.29606        -1.02630
H           2.18599        -8.30364        -0.35464
H           5.69329        -8.18301        -0.45007
H           3.06435        -6.45786        -0.25693
H           6.17849        -5.87954         0.07104
H           4.13001        -4.71573        -0.02342

