%chk=SdC1NdCCdC2CdC2CdCSSSS1.chk
%NProcShared=20
# opt freq b3lyp/6-31g(2df,p)

Title Card Required 

0  1
S           1.13703        -0.46917        -0.68279
C           2.86275        -0.39352        -0.58861
N           3.18868         0.47850         0.49698
C           4.37957         0.76166         0.84949
C           5.07514         1.58596         1.87566
C           6.40302         1.54073         1.81935
C           7.57766         1.90405         2.27164
C           7.72933         1.08675         1.25419
C           7.50108         0.20941         0.16198
C           8.08434        -0.54434        -0.77636
S           6.84798        -1.26609        -1.67487
S           7.02196        -2.47479        -3.17958
S           4.90187        -2.55545        -3.27999
S           3.60715        -1.44537        -1.89805
H           4.98578         0.23277         0.19106
H           4.58595         2.19456         2.63331
H           8.02455         2.51109         3.02736
H           6.47182         0.09188         0.01567
H           9.12321        -0.69352        -0.96207

