%chk=Sdc1ccccncc2cccccc-2c1.chk
%NProcShared=20
# opt freq b3lyp/6-31g(2df,p)

Title Card Required 

0  1
S           2.63272         0.32558         0.28662
C           4.68185         0.37885         1.18499
C           3.45263        -0.87934         1.26700
C           4.67552        -1.24426         1.10385
C           5.29872        -1.78813         2.21170
C           6.59810        -2.05413         2.08130
N           7.25468        -2.55207         3.09613
C           8.52652        -2.43435         2.81440
C           8.78165        -2.15146         4.13287
C           8.93589        -3.65134         4.58917
C           9.67233        -4.67020         5.64163
C          10.77416        -4.22374         6.19481
C          10.72896        -2.52443         5.45789
C           9.75814        -1.30370         4.42322
C           8.20627        -0.57369         3.21487
C           6.58036         0.05417         2.15030
H           2.75200        -1.12416         2.05946
H           5.10151        -1.13456         0.07066
H           4.78806        -1.88063         3.13839
H           7.36939        -1.39841         1.29225
H           9.39707        -1.77616         2.21606
H           8.23052        -4.35702         4.27459
H           9.30616        -5.69291         5.89480
H          11.27823        -5.10903         7.01128
H          11.90524        -2.90487         6.29572
H          11.07504        -1.24971         4.91072
H           6.06299         0.46697         0.77924

