%chk=Sdc1cc2ccccccnccccc1-2.chk
%NProcShared=20
# opt freq b3lyp/6-31g(2df,p)

Title Card Required 

0  1
S           2.24515         0.57317        -0.00926
C           4.39107         1.43739        -0.00311
C           4.21403        -0.46607        -0.00991
C           5.44584         0.71597         0.00195
C           6.40242        -0.19829         0.00279
C           7.26931         0.67367         0.00731
C           8.52707         0.76393         0.01504
C           9.39385         1.60374         0.02042
C          10.64546         1.64564         0.03476
C          11.36575         2.60975         0.03210
N          12.68814         2.73399         0.00183
C          11.89386         3.78070        -0.41986
C          12.65237         4.45843         0.21817
C          10.58745         4.48195         0.18865
C           8.36123         3.63326         0.07797
C           6.37386         2.60688         0.02812
H           3.76410        -1.93610        -0.01665
H           6.75277        -1.13853         0.00415
H           7.45113         1.62099         0.00571
H           9.02864        -0.05200         0.01835
H           9.25494         2.46903         0.03217
H          11.30173         0.97914         0.03347
H          10.08814         3.29254        -0.06165
H          11.99490         5.51879        -0.29946
H          14.25863         3.92198         0.07851
H          12.37695         4.75847         0.49792
H           6.83613         3.61872         0.00320

