%chk=SNC1dCCdCNdCCdCSSSCdCCdCdC1.chk
%NProcShared=20
# opt freq b3lyp/6-31g(2df,p)

Title Card Required 

0  1
S           2.37075        -0.32945        -0.32158
N           4.80351        -1.16562        -1.26120
C           6.78861        -2.22455        -2.45116
C           5.60369        -1.12369        -1.21408
C           6.04398        -1.88293        -2.06727
C           7.76571        -1.41996        -1.54701
N           8.29818        -2.20949        -2.43423
C           9.44809        -2.22495        -2.45161
C          10.22839        -3.76359        -4.18062
C          10.88760        -3.02599        -3.35176
S          11.33017        -4.80575        -5.35174
S          13.54606        -3.52401        -3.91140
S          14.54110        -5.57412        -6.21518
C          15.35464        -4.90952        -5.46834
C          16.05855        -5.41068        -6.03152
C          13.95416        -4.50698        -5.01599
C          11.66984        -3.75648        -4.17263
C           9.31620        -3.15594        -3.49779
H           0.81993         0.71695         0.85431
H           3.90341        -0.13221        -0.09993
H           5.48799        -0.19476        -0.17022
H           5.03134        -2.35306        -2.59556
H           7.53555        -0.87081        -0.92992
H           9.84205        -1.73644        -1.90265
H           9.29963        -4.13201        -4.59463
H          11.75475        -2.71111        -2.99792
H          16.92115        -4.09353        -4.55139
H          17.26782        -6.33690        -7.07234
H          16.09077        -4.42308        -4.92171
H           7.56236        -3.13663        -3.47609

