%chk=SSC1dCCdCCdCCdCCdNCdCCdCCdC1.chk
%NProcShared=20
# opt freq b3lyp/6-31g(2df,p)

Title Card Required 

0  1
S           2.07643        -0.40759        -0.60471
S           4.52567        -1.72240        -2.20716
C           6.43879        -3.16145        -3.96630
C           5.85743        -1.84536        -2.40167
C           5.77092        -2.60064        -3.25449
C           7.28330        -2.17799        -2.75242
C           8.04625        -2.94094        -3.68913
C           9.07291        -3.29741        -4.12382
C           9.81286        -4.09512        -5.09388
C          10.89701        -4.19021        -5.21119
C          11.26941        -4.86530        -6.02271
N          12.52483        -5.02309        -6.22430
C          12.07042        -5.64991        -7.03325
C          13.78816        -6.17468        -7.63465
C          14.49704        -7.00850        -8.68624
C          12.78763        -6.42712        -7.84522
C          10.37097        -5.45737        -6.75504
C           8.39009        -4.44746        -5.53830
H           0.77768         0.69866         0.74245
H           5.85796        -0.80193        -1.06886
H           4.58126        -2.74225        -3.43881
H           7.73799        -1.65353        -2.12329
H           7.64794        -3.54162        -4.42106
H           9.54862        -2.79946        -3.51759
H           9.09038        -5.05356        -6.26120
H          11.43826        -3.80838        -4.74634
H           9.42665        -5.67972        -7.01102
H          11.92648        -6.88787        -8.51592
H          14.95112        -5.94613        -7.34954
H          14.42220        -7.99691        -9.84759
H          14.67933        -6.79906        -8.37600
H          10.86514        -6.50166        -8.02664
H           6.72312        -4.05234        -5.04640

