%chk=CC1CCCCCCCqCrqCrCC1.CCCC.chk
%NProcShared=20
# opt freq b3lyp/6-31g(2df,p)

Title Card Required 

0  1
C           1.33533        -1.21390        -0.02960
C           2.71827        -0.63638        -0.67622
C           3.24161        -1.67436        -1.64127
C           2.08555        -2.50516        -2.17356
C           1.48018        -1.86133        -3.40739
C           0.84662        -0.43058        -3.35395
C           1.88514         0.68212        -3.54760
C           1.43973         2.15125        -3.42900
C           2.30923         3.03031        -2.46073
C           1.59617         4.40882        -2.27127
C           3.75676         3.25457        -2.87170
C           2.37661         2.30729        -1.11775
C           3.34101         1.00951        -0.92536
C           0.18653         1.12649         1.01452
C           1.76454         1.05821         1.44763
C           2.78618        -0.07871         2.16622
C           4.40238        -0.20640         1.89489
H           1.43704        -2.27555         0.25378
H           0.47998        -1.07624        -0.69467
H           0.96602        -0.94472         0.95260
H           3.38254        -0.91438         0.12172
H           3.93852        -2.33380        -1.09955
H           3.84448        -1.21722        -2.42953
H           1.24562        -2.71984        -1.51218
H           2.45232        -3.52723        -2.30437
H           0.70155        -2.55713        -3.72420
H           2.28217        -1.85908        -4.14547
H           0.23957        -0.25791        -2.45822
H           0.14693        -0.36625        -4.19085
H           2.42176         0.54190        -4.48363
H           2.63612         0.49541        -2.82062
H           0.38937         2.18879        -3.10082
H           1.46521         2.60510        -4.42404
H           1.62392         5.00409        -3.19161
H           2.05873         5.01308        -1.47867
H           0.54030         4.29123        -1.99072
H           3.85619         3.89310        -3.74617
H           4.24357         2.30671        -3.10264
H           4.31020         3.71013        -2.03558
H           1.34652         2.04495        -0.99340
H           2.58593         3.05856        -0.32784
H           3.93482         1.30253        -0.04446
H           4.15595         0.95834        -1.65690
H           0.02413         1.66614         0.05920
H          -0.40771         1.64770         1.75003
H          -0.37027         0.23031         0.70938
H           2.21034         2.03360         1.54052
H           1.96674         0.84432         0.40746
H           2.44431        -1.11692         2.06984
H           2.69707         0.15145         3.22063
H           4.77434        -0.88921         1.09696
H           4.88084        -0.69034         2.75469
H           4.90123         0.74378         1.69667

