%chk=CC1CCCCCqCrOCqCrqCrO1.chk
%NProcShared=20
# opt freq b3lyp/6-31g(2df,p)

Title Card Required 

0  1
C           0.84252         0.20470        -0.43175
C           2.34486         0.03894        -0.11488
C           2.99947         1.44386         0.05149
C           2.63992         2.37719         1.22864
C           1.18587         2.41478         1.68248
C           0.82293         1.57506         2.92610
C           1.39953         0.14485         3.15838
C           2.91357         0.22008         3.45720
O           0.87909        -0.80880         2.19195
C           1.80322        -1.68922         1.54967
C           1.22895        -2.66762         0.48714
C           2.29021        -2.70930         2.61141
O           2.79985        -0.89387         0.89848
H           0.67589         1.00725        -1.14324
H           0.23735         0.39568         0.45646
H           0.35893        -0.66852        -0.86980
H           2.78979        -0.36349        -1.03862
H           2.77066         2.00963        -0.86077
H           4.09255         1.32772         0.05689
H           2.90713         3.39474         0.90458
H           3.30539         2.23861         2.07851
H           0.50502         2.24332         0.85128
H           0.94670         3.45843         1.93487
H          -0.27389         1.52063         2.96490
H           1.11620         2.18404         3.79301
H           0.94525        -0.18237         4.10298
H           3.52681         0.37371         2.57512
H           3.32747        -0.67433         3.91142
H           3.13196         1.02708         4.16439
H           0.27257        -3.10233         0.79182
H           1.95013        -3.47829         0.30755
H           1.12383        -2.27476        -0.51786
H           1.44701        -3.36331         2.88713
H           2.58763        -2.30502         3.57206
H           3.11234        -3.32996         2.24823

