%chk=CC1CCdCqCCdOrCC1CCdN.chk
%NProcShared=20
# opt freq b3lyp/6-31g(2df,p)

Title Card Required 

0  1
C           0.81624        -0.03305        -0.01852
C           2.34688        -0.04965         0.01459
C           2.86930        -1.33356        -0.62699
C           3.70862        -1.19361        -1.84132
C           4.08846        -0.02583        -2.37728
C           4.95975        -0.01372        -3.61438
C           5.33156         1.36141        -4.14500
O           6.03575         1.53288        -5.14440
C           3.70491         1.28682        -1.77449
C           2.84124         1.31129        -0.51613
C           3.58368         2.08383         0.58807
C           2.80186         2.15331         1.87551
N           3.27226         2.68700         2.95063
H           0.41007        -0.94258         0.42839
H           0.46225         0.05223        -1.05071
H           0.41402         0.81976         0.53812
H           2.64446        -0.14702         1.06589
H           2.03116        -1.99871        -0.86453
H           3.46797        -1.86578         0.12441
H           4.02555        -2.13500        -2.28895
H           4.43736        -0.54074        -4.42102
H           5.89708        -0.53496        -3.38757
H           4.95945         2.24463        -3.61055
H           3.16243         1.85751        -2.54080
H           4.63614         1.82793        -1.56511
H           1.96718         1.93039        -0.77647
H           3.79187         3.10932         0.25760
H           4.54313         1.59508         0.79199
H           1.79570         1.71217         1.91293
H           4.21424         3.05316         2.78728

