%chk=CC1OCCC2CCqCrC3qCrCC1C3C2.chk
%NProcShared=20
# opt freq b3lyp/6-31g(2df,p)

Title Card Required 

0  1
C           0.84152        -0.17096         0.40792
C           2.25239        -0.04273        -0.09555
O           2.82938        -1.09969        -0.92194
C           1.99184        -2.09647        -1.53809
C           1.63538        -1.76423        -3.02947
C           1.26398        -0.34637        -3.06320
C           2.35823         0.63751        -3.58737
C           1.81854         2.28328        -3.66640
C           2.08828         2.94080        -4.97156
C           2.14550         2.90503        -2.29832
C           3.70664         3.08835        -2.43836
C           1.83635         2.72306        -0.50965
C           2.23985         1.28319        -0.84688
C           0.93874         1.74032        -2.05362
C           0.16059         0.63284        -3.26167
H           0.59097        -1.16441         0.75483
H           0.13513         0.09613        -0.37916
H           0.67540         0.58274         1.17968
H           2.95046         0.01156         0.75446
H           1.06913        -2.20595        -0.96646
H           2.49897        -3.06133        -1.48048
H           0.85027        -2.44425        -3.38488
H           2.53079        -1.91076        -3.65145
H           0.85902        -0.37328        -2.05181
H           2.68131         0.33304        -4.58078
H           3.21545         0.51472        -2.91890
H           0.72855         2.53408        -3.80704
H           3.13123         2.89511        -5.23625
H           1.69525         3.96587        -4.94710
H           1.48520         2.39132        -5.71298
H           4.26478         2.14638        -2.53983
H           4.15757         3.63090        -1.60437
H           3.96193         3.64632        -3.34601
H           0.80663         2.69064        -0.09769
H           2.39662         3.30281         0.22467
H           3.33677         1.39059        -0.97283
H           0.05571         2.38516        -1.84053
H           0.22086         0.86898        -4.34951
H          -0.86523         0.43657        -3.03642

