%chk=CCC1CCCCCC[SH]qNCCSSrC1.chk
%NProcShared=20
# opt freq b3lyp/6-31g(2df,p)

Title Card Required 

0  1
C           0.60519         0.26359        -0.02698
C           2.09462         0.47061         0.11758
C           2.89349         0.88889        -1.12924
C           4.06004         1.83499        -0.73887
C           5.33479         1.21217        -0.13737
C           5.15644         0.34600         1.11294
C           5.80528        -1.04318         1.05024
C           5.37658        -1.97547        -0.09120
C           3.90463        -2.35341        -0.06995
S           3.06018        -1.90067        -1.57558
N           3.61873        -2.94850        -2.79136
C           3.24369        -2.69775        -4.17395
C           3.80614        -3.75174        -5.11844
S           3.23469        -3.34977        -6.80116
S           4.04710        -4.86415        -7.91136
C           3.40707        -0.22768        -2.05664
H           0.25266        -0.28255         0.85804
H           0.34499        -0.32613        -0.90700
H           0.08760         1.22437        -0.05257
H           2.45260        -0.47128         0.48915
H           2.25785         1.17417         0.93868
H           2.21502         1.50643        -1.73729
H           3.67918         2.60638        -0.05791
H           4.36513         2.37975        -1.64498
H           5.99075         2.05152         0.13250
H           5.89174         0.67743        -0.91180
H           4.12000         0.23379         1.40877
H           5.60265         0.88388         1.95961
H           5.59885        -1.54967         2.00193
H           6.89231        -0.91682         0.99631
H           5.94972        -2.90521         0.00587
H           5.67870        -1.55172        -1.05157
H           3.39506        -1.97786         0.81334
H           3.78128        -3.44049         0.00095
H           1.72858        -2.04744        -1.45551
H           3.39615        -3.92638        -2.54401
H           3.63259        -1.71169        -4.46597
H           2.14910        -2.66275        -4.23780
H           3.44774        -4.74704        -4.83074
H           4.90147        -3.74354        -5.08371
H           3.57205        -4.50475        -9.11303
H           2.94033        -0.09282        -3.04004
H           4.47975        -0.16418        -2.25904

