%chk=CCC1CCCCCCqCCCCCCqCrCrCC1.chk
%NProcShared=20
# opt freq b3lyp/6-31g(2df,p)

Title Card Required 

0  1
C           0.72950        -0.25584         0.10667
C           2.23327        -0.36102         0.09726
C           3.01391        -1.11550        -0.97524
C           2.48396        -0.85712        -2.40254
C           2.80399         0.49318        -3.08196
C           2.40107         1.79850        -2.38418
C           3.55888         2.75900        -2.03587
C           4.82880         2.22998        -1.32684
C           4.59296         1.62286         0.06141
C           5.09475         2.46040         1.24308
C           4.50272         1.92349         2.55641
C           4.92704         2.79258         3.71858
C           4.42971         2.18872         5.02009
C           4.93430         3.01440         6.19369
C           4.49212         2.44048         7.54288
C           5.01215         1.01760         7.75620
C           4.99013         3.35117         8.66252
C           5.07212         0.14294         0.15147
C           4.55431        -0.86281        -0.90033
H           0.46587         0.57545         0.77685
H           0.26122        -1.16750         0.47169
H           0.32670         0.01561        -0.87014
H           2.61855        -0.54708         1.09902
H           2.44240         0.65939        -0.13089
H           2.85659        -2.18622        -0.76768
H           1.40162        -1.02712        -2.42601
H           2.89773        -1.64196        -3.05213
H           2.27429         0.47041        -4.04450
H           3.86079         0.52422        -3.35909
H           1.74438         1.65869        -1.52925
H           1.73861         2.34460        -3.07192
H           3.14175         3.58011        -1.43801
H           3.88801         3.20935        -2.97977
H           5.53031         3.06620        -1.23227
H           5.32518         1.51441        -1.98616
H           3.54407         1.76345         0.25720
H           4.74044         3.49259         1.11722
H           6.18638         2.48348         1.28404
H           4.83647         0.89896         2.75024
H           3.40444         1.88808         2.50655
H           4.53385         3.80701         3.59413
H           6.02102         2.85344         3.73621
H           4.79817         1.15939         5.08497
H           3.33367         2.14174         5.03120
H           4.56145         4.04191         6.08981
H           6.02983         3.07248         6.15307
H           3.39540         2.41972         7.57369
H           6.10505         0.98538         7.68952
H           4.60850         0.32218         7.01399
H           4.71425         0.63809         8.73761
H           6.08437         3.40625         8.66645
H           4.66268         2.97948         9.63780
H           4.60149         4.36764         8.53925
H           4.84209        -0.29309         1.12839
H           6.17015         0.14615         0.10116
H           5.03450        -1.82813        -0.67832
H           4.96574        -0.60716        -1.88160

