%chk=CCC1qCCNCOCrCCCqCrCC1.chk
%NProcShared=20
# opt freq b3lyp/6-31g(2df,p)

Title Card Required 

0  1
C           1.11071         0.21165        -0.34469
C           2.59630         0.02787        -0.01956
C           3.05552        -1.26065         0.75327
C           2.57125        -1.25716         2.24449
C           1.06051        -1.29517         2.38540
N           0.55428        -1.35243         3.75025
C          -0.89652        -1.22853         3.64707
O          -1.44950        -1.14250         4.94331
C          -2.86722        -1.11000         4.86727
C           4.61882        -1.26413         0.76890
C           5.22001        -2.56447         1.31889
C           4.69867        -3.80590         0.58285
C           5.26327        -3.87998        -0.83924
C           3.16594        -3.82297         0.56455
C           2.58287        -2.52977        -0.00831
H           0.98197         0.98707        -1.10450
H           0.52990         0.58928         0.49588
H           0.64460        -0.70473        -0.71382
H           2.94276         0.91534         0.52511
H           3.11595         0.04535        -0.98674
H           2.96251        -0.36116         2.74327
H           2.98415        -2.10911         2.79406
H           0.63868        -2.12155         1.81126
H           0.68683        -0.35840         2.00689
H           0.88494        -0.55254         4.27450
H          -1.30707        -2.09504         3.11711
H          -1.17039        -0.31929         3.09307
H          -3.26013        -1.09170         5.88522
H          -3.24550        -2.00173         4.35717
H          -3.20021        -0.21005         4.34018
H           4.99525        -0.41743         1.35638
H           4.99939        -1.10939        -0.24921
H           4.99278        -2.65608         2.38767
H           6.31396        -2.52097         1.25728
H           5.04435        -4.69746         1.12178
H           4.97707        -3.01686        -1.44751
H           4.90010        -4.77622        -1.35167
H           6.35649        -3.91665        -0.81829
H           2.78891        -3.97864         1.58281
H           2.80452        -4.67715        -0.02027
H           1.49323        -2.61847        -0.01571
H           2.86392        -2.44560        -1.06584

