%chk=CCC1CCqNrCCqCrCCCO1.chk
%NProcShared=20
# opt freq b3lyp/6-31g(2df,p)

Title Card Required 

0  1
C           0.91071        -0.53482        -0.82225
C           2.34182        -0.38684        -0.29245
C           2.76201        -0.87514         1.12581
C           4.20059        -0.38461         1.52525
C           4.30353         0.97147         2.27385
N           3.77839         0.78251         3.62803
C           3.76544         2.16656         1.45828
C           2.57710         3.00777         1.97958
C           3.12947         4.01244         2.99210
C           1.31649         2.31287         2.56065
C           0.62641         1.34010         1.61583
C           0.63414        -0.11488         2.12118
O           1.93451        -0.63848         2.26638
H           0.82447         0.04985        -1.74455
H           0.11073        -0.10772        -0.22153
H           0.64316        -1.57311        -1.00427
H           2.57217         0.66406        -0.40709
H           3.00759        -0.86716        -1.01851
H           2.84390        -1.96754         1.04673
H           4.87395        -0.38635         0.66081
H           4.62319        -1.13395         2.21676
H           5.37222         1.17857         2.42612
H           2.88947         0.25912         3.52232
H           3.54010         1.64213         4.07824
H           3.59538         1.88753         0.42104
H           4.61036         2.86050         1.31708
H           2.22653         3.59672         1.11746
H           3.63108         3.52197         3.82755
H           2.33390         4.63894         3.39791
H           3.87296         4.65778         2.51337
H           0.58237         3.09864         2.78043
H           1.50111         1.84236         3.52690
H           1.10300         1.47922         0.65089
H          -0.41479         1.63948         1.44972
H           0.03621        -0.82486         1.54237
H           0.16049        -0.13668         3.10906

