%chk=CCC1dCCdCCdCSCdCdCCdC1.chk
%NProcShared=20
# opt freq b3lyp/6-31g(2df,p)

Title Card Required 

0  1
C           1.53198        -0.72484         0.37707
C           3.28554        -1.66014         0.69269
C           4.69838        -3.10515         1.30217
C           5.07491        -1.82525         1.49137
C           5.37342        -1.86294         2.80903
C           6.67443        -2.07818         2.73281
C           7.17677        -2.85958         3.78017
C           8.45835        -3.18412         3.70036
S           9.22186        -3.48539         5.20984
C          10.49365        -4.49789         4.55403
C          10.03503        -5.68811         4.47707
C           8.70797        -6.00076         4.48491
C           7.12650        -5.33545         3.43072
C           5.89363        -4.47719         2.38680
H           1.31239         0.26190        -0.40445
H           0.98706        -0.13388         1.18795
H           0.81386        -1.32093        -0.19468
H           3.51527        -0.39694         0.94429
H           3.46710        -1.26604        -0.42413
H           5.23344        -0.96833         0.78037
H           4.64635        -2.43034         3.43201
H           7.17386        -1.93033         1.74560
H           6.47837        -3.49383         4.41282
H           8.99630        -3.11707         2.75564
H          11.16408        -4.21091         3.77053
H           9.29125        -6.45107         5.63661
H           8.09094        -6.21031         3.22643
H           4.92430        -4.60824         2.92066

