%chk=CCC1qCrCCqCOCrCCCCCqCrqCrCqCrC1.chk
%NProcShared=20
# opt freq b3lyp/6-31g(2df,p)

Title Card Required 

0  1
C           0.92566         0.14285         0.73009
C           2.36998         0.01951         0.24716
C           2.94840        -0.95718        -0.86606
C           3.19111        -2.32505        -0.16098
C           2.09864        -1.34364        -2.16121
C           0.66824        -0.82182        -2.16074
C          -0.38226        -1.89742        -2.46091
O          -1.63632        -1.32569        -2.06818
C          -2.69564        -2.25861        -2.12375
C           0.42489         0.52577        -2.90000
C           1.29839         1.75015        -2.52894
C           2.66198         1.71561        -3.21377
C           3.72108         2.67823        -2.67200
C           5.07562         1.98664        -2.23207
C           6.01691         3.13258        -1.79496
C           5.72115         1.27652        -3.43590
C           4.83005         1.01456        -1.01132
C           5.93860         0.93221         0.05334
C           4.38575        -0.45534        -1.34457
H           0.88405         0.81250         1.59288
H           0.47413        -0.81525         0.98622
H           0.29548         0.68195         0.00860
H           2.98304        -0.12104         1.14626
H           2.52670         1.04045        -0.06241
H           2.24650        -2.74960         0.19368
H           3.86770        -2.22298         0.69363
H           3.65095        -3.05173        -0.84489
H           2.07241        -2.43934        -2.25356
H           2.58688        -1.08634        -3.10245
H           0.42329        -0.68329        -1.15497
H          -0.18958        -2.77154        -1.81814
H          -0.40316        -2.20548        -3.50271
H          -3.61558        -1.74170        -1.83650
H          -2.52098        -3.07924        -1.42276
H          -2.79792        -2.63289        -3.14324
H          -0.61254         0.82473        -2.69345
H           0.49082         0.36160        -3.97646
H           1.39154         1.86232        -1.45253
H           0.77649         2.66137        -2.84963
H           2.52405         1.87614        -4.28743
H           3.05829         0.72460        -3.13125
H           3.31722         3.26615        -1.83698
H           3.94105         3.40626        -3.46526
H           6.18995         3.84403        -2.60829
H           6.99645         2.74967        -1.48950
H           5.58920         3.68921        -0.95253
H           6.02048         1.99550        -4.20502
H           5.04210         0.57839        -3.93457
H           6.60588         0.71206        -3.12609
H           4.08600         1.56621        -0.45681
H           6.88322         0.57884        -0.36307
H           5.63261         0.25247         0.85948
H           6.09392         1.90346         0.53561
H           5.14927        -1.13282        -0.93389
H           4.49060        -0.65974        -2.41106

