%chk=CCC1CCCCqCC2CCqOCrC2rC1CC.chk
%NProcShared=20
# opt freq b3lyp/6-31g(2df,p)

Title Card Required 

0  1
C           0.70266         0.18205        -0.07633
C           2.20706         0.16523         0.11570
C           2.70832        -1.07369         0.88125
C           2.06119        -1.05949         2.28793
C           2.38626        -2.24819         3.18015
C           2.18748        -3.56589         2.43844
C           2.99594        -3.60018         1.11845
C           4.52492        -3.60442         1.49290
C           5.58246        -3.77677         0.39561
C           5.29541        -4.74294        -0.77354
C           5.75476        -3.65718        -1.76501
O           6.98772        -3.81815        -2.48621
C           7.19483        -2.75227        -3.40806
C           5.83041        -2.62163        -0.59460
C           2.41680        -2.43402         0.20088
C           2.79436        -2.62986        -1.27640
C           3.14356        -1.53141        -2.26848
H           0.42375         0.94854        -0.80090
H           0.19843         0.40608         0.86577
H           0.33500        -0.77678        -0.45225
H           2.54516         1.07062         0.63178
H           2.65220         0.26865        -0.86518
H           3.79260        -0.96254         1.00669
H           0.97191        -1.06770         2.17517
H           2.32312        -0.12865         2.80214
H           1.72906        -2.22100         4.05686
H           3.40687        -2.16417         3.56581
H           1.11986        -3.69124         2.20996
H           2.45856        -4.40546         3.08876
H           2.75866        -4.56125         0.64232
H           4.67237        -4.44342         2.18981
H           4.79052        -2.71088         2.06665
H           6.54619        -4.02272         0.86785
H           4.23624        -5.01850        -0.88845
H           5.83696        -5.68843        -0.77929
H           4.97558        -3.50981        -2.52014
H           8.20654        -2.82552        -3.80216
H           7.06897        -1.78562        -2.90681
H           6.46526        -2.82113        -4.22221
H           5.09364        -1.81853        -0.53992
H           6.77835        -2.07934        -0.51530
H           1.32541        -2.57635         0.19480
H           2.22981        -3.42952        -1.75931
H           3.72827        -3.12519        -1.14555
H           2.24316        -1.06109        -2.67295
H           3.70871        -1.92735        -3.11967
H           3.82477        -0.78198        -1.85886

