%chk=CCCCCCqCCrCqCCrqCOrOC.chk
%NProcShared=20
# opt freq b3lyp/6-31g(2df,p)

Title Card Required 

0  1
C           0.97590         0.03466        -0.00153
C           2.48157         0.03139        -0.06084
C           2.96773        -0.98074        -1.08877
C           4.47892        -0.97133        -1.03261
C           5.09198        -2.02136        -1.91593
C           6.63516        -2.08349        -1.92019
C           7.25493        -2.23480        -0.49106
C           7.05186        -1.17537         0.58935
C           7.12218        -3.23299        -2.94313
C           6.62251        -4.65782        -2.52367
C           7.17400        -5.23892        -1.22259
C           6.62143        -2.90214        -4.40689
O           5.22563        -2.96558        -4.64972
O           8.57608        -3.20183        -2.95804
C           9.22600        -4.12876        -3.83013
H           0.63252         0.78158         0.71730
H           0.60765        -0.94761         0.31024
H           0.55926         0.26830        -0.98487
H           2.88440        -0.21737         0.93041
H           2.85915         1.02886        -0.31528
H           2.60311        -0.74756        -2.09457
H           2.60166        -1.98264        -0.82680
H           4.68566        -1.21665        -0.00389
H           4.88629         0.01801        -1.26711
H           4.72483        -1.78823        -2.91406
H           4.68129        -2.99328        -1.62790
H           7.01737        -1.12819        -2.31140
H           8.33401        -2.39434        -0.58554
H           6.82586        -3.10985        -0.02401
H           7.17077        -0.15550         0.22370
H           7.75134        -1.35609         1.41209
H           6.08864        -1.28144         1.09207
H           6.88775        -5.36659        -3.31573
H           5.53143        -4.69399        -2.47411
H           8.23909        -5.02867        -1.08667
H           7.02877        -6.32129        -1.19513
H           6.61941        -4.88410        -0.35361
H           7.05474        -3.58994        -5.13525
H           6.97048        -1.90134        -4.69604
H           4.86996        -3.77410        -4.22666
H          10.30682        -4.01750        -3.71812
H           8.99698        -3.93452        -4.88092
H           8.97463        -5.16209        -3.58024

