%chk=CCCCCqCrONqCrCqCCCCrOC.chk
%NProcShared=20
# opt freq b3lyp/6-31g(2df,p)

Title Card Required 

0  1
C           0.88036        -0.05537        -0.03172
C           2.40514        -0.08644        -0.06981
C           2.91647         1.33341        -0.22524
C           4.44186         1.48904        -0.16032
C           4.86529         2.97997        -0.16093
C           4.12400         3.71297         0.96243
O           6.29028         3.08012         0.10342
N           6.85573         4.35367        -0.39653
C           6.64511         5.32102         0.69392
C           8.32834         4.18273        -0.52799
C           8.76640         3.25738        -1.67273
C           8.30656         1.82026        -1.53958
C           8.85490         0.96058        -2.66828
C           8.33955        -0.45691        -2.51234
O           8.91119         5.47605        -0.78049
C          10.31330         5.55871        -0.59968
H           0.47431        -1.06068         0.09305
H           0.47818         0.37449        -0.95622
H           0.52102         0.56138         0.80163
H           2.75838        -0.71758        -0.88794
H           2.77591        -0.50718         0.87392
H           2.44300         1.86814         0.59648
H           2.54171         1.78333        -1.15510
H           4.90601         0.96148        -1.00218
H           4.83240         1.00113         0.74486
H           4.63201         3.40793        -1.14956
H           4.58085         3.46558         1.92842
H           3.05630         3.52916         1.02261
H           4.14728         4.78630         0.82798
H           5.66765         5.78194         0.59138
H           7.31221         6.18482         0.65903
H           6.74594         4.84823         1.67772
H           8.72528         3.79504         0.42588
H           9.86107         3.24187        -1.72156
H           8.44235         3.68521        -2.63226
H           7.21903         1.76462        -1.58104
H           8.63323         1.41896        -0.56968
H           9.95010         0.96839        -2.66369
H           8.52693         1.36887        -3.63301
H           8.68420        -0.88807        -1.56602
H           8.69206        -1.08581        -3.33212
H           7.24450        -0.46959        -2.51092
H          10.59354         6.61402        -0.61755
H          10.83386         5.07009        -1.42631
H          10.62194         5.12916         0.35855

