%chk=CCCCCqCrCCCqCrOC.chk
%NProcShared=20
# opt freq b3lyp/6-31g(2df,p)

Title Card Required 

0  1
C           0.91673        -0.10577         0.04507
C           2.43626        -0.11660         0.04072
C           2.94006        -0.09900        -1.39563
C           4.46207        -0.05916        -1.47023
C           4.96468        -0.01022        -2.92815
C           4.45194         1.23050        -3.66477
C           6.49900        -0.05071        -2.91238
C           7.12305        -0.09682        -4.30834
C           8.65567        -0.14933        -4.26406
C           9.14482        -1.39535        -3.52872
O           9.10437        -0.14701        -5.62628
C          10.51460        -0.02851        -5.75455
H           0.53598        -0.10569         1.06942
H           0.52150        -0.98463        -0.47349
H           0.53516         0.78708        -0.46303
H           2.80638        -1.00615         0.56308
H           2.80934         0.76196         0.57763
H           2.51776         0.78577        -1.88254
H           2.57138        -0.97728        -1.93577
H           4.86568        -0.95414        -0.97442
H           4.84283         0.80429        -0.91393
H           4.59989        -0.90225        -3.44928
H           4.79476         2.14462        -3.17275
H           3.36019         1.25122        -3.71349
H           4.78869         1.24906        -4.70449
H           6.79042        -0.94629        -2.35096
H           6.89393         0.81068        -2.36367
H           6.83926         0.79129        -4.88652
H           6.73070        -0.95227        -4.87020
H           9.02230         0.75694        -3.76867
H           8.80437        -2.29916        -4.04313
H           8.80162        -1.42355        -2.49216
H          10.23587        -1.43379        -3.48779
H          10.75832         0.07201        -6.81535
H          11.01198        -0.92957        -5.38815
H          10.88141         0.85247        -5.22041

