%chk=CCCCNCCOCCCCqCrCOCC.chk
%NProcShared=20
# opt freq b3lyp/6-31g(2df,p)

Title Card Required 

0  1
C           1.00839        -0.07917        -0.06812
C           2.52584        -0.06850        -0.06917
C           3.06292         1.35151        -0.21804
C           4.58788         1.34495        -0.21706
N           5.06599         2.71577        -0.35783
C           6.52947         2.74258        -0.36491
C           7.01101         4.17986        -0.51725
O           8.43425         4.19829        -0.49273
C           8.90583         5.53215        -0.63686
C          10.41943         5.49342        -0.64157
C          10.98773         6.89624        -0.81247
C          12.52116         6.91630        -0.84384
C          13.07871         6.07498        -1.99729
C          12.99879         8.36799        -0.95739
O          14.42304         8.40285        -0.93286
C          14.90902         9.73068        -1.09710
C          16.42215         9.69174        -1.09951
H           0.63772        -1.10245         0.04026
H           0.61564         0.33101        -1.00385
H           0.61552         0.51785         0.76094
H           2.89437        -0.69370        -0.89071
H           2.89394        -0.50877         0.86487
H           2.68874         1.97566         0.60344
H           2.69185         1.79184        -1.15259
H           4.95242         0.73154        -1.04812
H           4.95590         0.90998         0.71962
H           4.71901         3.27931         0.41448
H           6.92861         2.14072        -1.18977
H           6.93484         2.32000         0.56295
H           6.63224         4.79397         0.30816
H           6.65553         4.59800        -1.46666
H           8.54020         6.14456         0.19462
H           8.53926         5.95013        -1.58199
H          10.73653         4.83134        -1.45398
H          10.78807         5.03852         0.28585
H          10.63251         7.52686         0.01368
H          10.59271         7.34112        -1.73525
H          12.90722         6.49456         0.09349
H          12.70610         6.43961        -2.96049
H          12.79868         5.02212        -1.90126
H          14.17184         6.10396        -2.01843
H          12.61271         8.95859        -0.11785
H          12.63570         8.81151        -1.89287
H          14.55045        10.35505        -0.27199
H          14.54649        10.14245        -2.04540
H          16.79868         9.25420        -0.16925
H          16.83314        10.69854        -1.21114
H          16.79028         9.06560        -1.91904

