%chk=CCCCCCC1CCCqCrCCC1CC.chk
%NProcShared=20
# opt freq b3lyp/6-31g(2df,p)

Title Card Required 

0  1
C           0.86222         0.05170        -0.01111
C           2.37637         0.03292         0.00558
C           2.93195        -0.36130        -1.35147
C           4.44967        -0.47219        -1.27628
C           4.98373        -0.99074        -2.59606
C           6.50298        -0.85228        -2.71555
C           6.97079        -0.95941        -4.17801
C           6.79855        -2.45008        -4.55061
C           7.23887        -2.85883        -5.94141
C           6.21545        -2.39334        -6.97821
C           6.10411        -3.42745        -8.09652
C           6.54683        -1.00898        -7.54069
C           7.03982         0.03471        -6.53244
C           6.28865         0.06045        -5.17042
C           6.25674         1.55534        -4.70137
C           5.36179         1.96672        -3.53729
H           0.48079         0.29898         0.98248
H           0.46519        -0.92628        -0.29976
H           0.48978         0.79777        -0.72156
H           2.72287        -0.68382         0.76124
H           2.75789         1.01886         0.29165
H           2.64667         0.39255        -2.10240
H           2.50323        -1.31365        -1.68188
H           4.75333        -1.15882        -0.47606
H           4.86465         0.50733        -1.02521
H           4.47217        -0.46993        -3.41156
H           4.69059        -2.03792        -2.70903
H           6.96947        -1.64271        -2.10981
H           6.89817         0.06945        -2.28269
H           8.04959        -0.75162        -4.18103
H           5.75267        -2.75437        -4.42468
H           7.36563        -3.05646        -3.83051
H           7.30262        -3.95441        -5.94520
H           8.24798        -2.49217        -6.15861
H           5.22038        -2.33858        -6.51557
H           7.06092        -3.55805        -8.61105
H           5.34757        -3.13050        -8.82854
H           5.80479        -4.39886        -7.68547
H           5.64988        -0.61751        -8.03789
H           7.30864        -1.09922        -8.32613
H           6.96153         1.00855        -7.03394
H           8.11444        -0.10377        -6.35982
H           5.25291        -0.24331        -5.35744
H           5.88976         2.15686        -5.54541
H           7.27633         1.89183        -4.49389
H           4.32159         1.66739        -3.68688
H           5.37422         3.05211        -3.40180
H           5.72029         1.58328        -2.58778

