%chk=CCCC1CC1qCrCqCOrCCqCrCCO.chk
%NProcShared=20
# opt freq b3lyp/6-31g(2df,p)

Title Card Required 

0  1
C           0.96305        -0.10490        -0.01149
C           2.47995        -0.09029        -0.04863
C           2.98252         0.31169        -1.43511
C           4.47704         0.33212        -1.48076
C           5.15057        -0.77990        -2.22143
C           5.27801         0.64870        -2.74502
C           4.54965         0.98681        -4.02934
C           6.65628         1.34872        -2.59897
C           7.71313         0.49301        -3.33386
O           7.88853        -0.81199        -2.78874
C           6.54541         2.81824        -3.13386
C           7.78142         3.73935        -3.10739
C           8.93123         3.20201        -3.96077
C           7.38641         5.12657        -3.66320
C           8.56015         6.10138        -3.62984
O           8.17101         7.35134        -4.16701
H           0.60774        -0.37232         0.98764
H           0.56377        -0.83290        -0.72477
H           0.56213         0.88132        -0.26595
H           2.86646        -1.08019         0.22484
H           2.85617         0.61358         0.70330
H           2.60613         1.30610        -1.69473
H           2.58305        -0.39166        -2.17655
H           4.91136         0.63992        -0.53619
H           4.57413        -1.47983        -2.81522
H           5.95312        -1.27133        -1.68727
H           3.69329         0.34452        -4.23698
H           5.23744         0.90279        -4.87917
H           4.18209         2.01957        -3.99241
H           6.91652         1.39658        -1.53321
H           8.70214         0.89283        -3.21221
H           7.48957         0.41399        -4.39894
H           8.17381        -0.69141        -1.87681
H           5.73162         3.31264        -2.57804
H           6.21428         2.80200        -4.17878
H           8.10642         3.85439        -2.06657
H           8.56589         2.86104        -4.93593
H           9.47627         2.42094        -3.44868
H           9.73204         3.91376        -4.13623
H           6.54612         5.55200        -3.09817
H           7.01893         5.03178        -4.69540
H           9.40287         5.76534        -4.23535
H           8.91459         6.23178        -2.60299
H           8.01362         7.20189        -5.11656

