%chk=CCCCC1CdCC2dCCqOCrdC21.chk
%NProcShared=20
# opt freq b3lyp/6-31g(2df,p)

Title Card Required 

0  1
C           1.04137         0.03594         0.08651
C           2.54512         0.03681         0.09329
C           3.05941         0.28225         1.48703
C           4.56648         0.27350         1.51647
C           5.02631         0.57965         2.91009
C           4.99847         2.04214         3.03960
C           6.03990         2.78886         3.35184
C           7.14808         1.93400         3.50575
C           8.11970         1.09403         3.63575
C           7.55214        -0.15577         3.38702
O           8.18799        -1.24813         3.43164
C           9.57505        -1.04876         3.75959
C           6.42371         0.48175         3.18734
H           0.66750        -0.14300        -0.91898
H           0.66467         0.99659         0.43463
H           0.66465        -0.74563         0.74467
H           2.91287         0.81587        -0.57446
H           2.91276        -0.92426        -0.26504
H           2.69306        -0.49330         2.15957
H           2.68905         1.24407         1.84645
H           4.93932         1.05536         0.83279
H           4.94224        -0.67812         1.14997
H           4.50531         0.24090         3.79876
H           4.09329         2.50419         2.88584
H           5.93997         3.86254         3.43729
H           9.11037         1.19448         3.88175
H          10.06811        -2.01081         3.77584
H           9.68873        -0.58612         4.74771
H          10.07661        -0.41686         3.01606

