%chk=CCCCCqCrCCCqOrCCCOC.chk
%NProcShared=20
# opt freq b3lyp/6-31g(2df,p)

Title Card Required 

0  1
C           0.90680         0.04535        -0.09834
C           2.42546         0.05429        -0.08835
C           2.93701        -1.19748         0.60542
C           4.45943        -1.26522         0.60997
C           4.96692        -2.54868         1.28693
C           4.44674        -3.80482         0.57547
C           6.50090        -2.52110         1.31595
C           7.07168        -3.73905         2.03341
C           8.59153        -3.72473         2.04328
O           9.05925        -2.56911         2.73118
C           9.09819        -4.98660         2.73060
C          10.61728        -5.03160         2.74266
C          11.09237        -6.28921         3.44273
O          12.51429        -6.29476         3.44347
C          13.01140        -7.45167         4.09851
H           0.52283         0.93462        -0.60328
H           0.51340         0.02679         0.92328
H           0.52773        -0.83891        -0.62267
H           2.79376         0.94950         0.42351
H           2.79742         0.08401        -1.11919
H           2.52090        -2.05955         0.07609
H           2.56680        -1.23903         1.63710
H           4.85804        -0.38900         1.13878
H           4.83948        -1.21193        -0.41815
H           4.60282        -2.56124         2.32316
H           4.79372        -3.83228        -0.46264
H           3.35613        -3.85563         0.57869
H           4.77108        -4.72202         1.07212
H           6.83709        -1.60738         1.82321
H           6.89573        -2.47729         0.29302
H           6.75346        -4.66231         1.54006
H           6.68289        -3.75928         3.05941
H           8.96861        -3.68316         1.01574
H           8.70980        -2.59489         3.63299
H           8.70504        -5.87423         2.21718
H           8.72914        -5.01993         3.76389
H          11.02850        -4.15145         3.25106
H          11.00737        -5.00200         1.71784
H          10.71950        -7.17622         2.91734
H          10.72286        -6.30451         4.47497
H          14.10255        -7.41655         4.07968
H          12.67576        -8.35350         3.57768
H          12.67478        -7.47104         5.13956

