%chk=CCCCCCCCC1CqCrCCCC1C.chk
%NProcShared=20
# opt freq b3lyp/6-31g(2df,p)

Title Card Required 

0  1
C           0.87803         0.03280         0.05703
C           2.39337         0.03081         0.05757
C           2.91391        -1.29528         0.58598
C           4.43171        -1.29765         0.59373
C           4.91653        -2.62477         1.14120
C           6.42772        -2.63217         1.18870
C           6.88461        -3.96703         1.75543
C           8.38915        -3.96662         1.79656
C           9.12873        -5.27847         2.13581
C           8.48226        -6.65758         1.81153
C           7.19778        -7.00372         2.57388
C           8.32440        -6.88890         0.30336
C           9.64069        -6.69491        -0.44920
C          10.30399        -5.36167        -0.12480
C          10.49380        -5.14788         1.39454
C          11.56291        -6.08029         1.95912
H           0.50315         0.98687        -0.32229
H           0.49098        -0.11417         1.07016
H           0.49066        -0.76994        -0.57796
H           2.76480         0.85115         0.68165
H           2.76546         0.19790        -0.95927
H           2.54776        -2.12046        -0.03614
H           2.54203        -1.46726         1.60306
H           4.81057        -0.47812         1.21438
H           4.81885        -1.14658        -0.42056
H           4.56102        -3.44551         0.50789
H           4.51779        -2.79032         2.14753
H           6.80465        -1.80597         1.79984
H           6.82791        -2.49636         0.17548
H           6.51378        -4.74118         1.08355
H           6.47338        -4.12813         2.75499
H           8.72476        -3.20034         2.50881
H           8.71678        -3.57506         0.83111
H           9.30540        -5.25853         3.22074
H           9.19305        -7.41744         2.16476
H           6.33578        -6.40137         2.29171
H           7.34492        -6.90869         3.65448
H           6.91380        -8.04427         2.37342
H           7.56762        -6.21546        -0.11090
H           7.96402        -7.90863         0.12106
H           9.45245        -6.75667        -1.52656
H          10.32787        -7.51206        -0.20477
H           9.68126        -4.57020        -0.55966
H          11.26657        -5.27553        -0.63903
H          10.87284        -4.12750         1.54774
H          11.32345        -7.13553         1.81443
H          11.69576        -5.90719         3.03152
H          12.51992        -5.88727         1.46393

