%chk=CCCC1CCCC1CCCqCrOC.chk
%NProcShared=20
# opt freq b3lyp/6-31g(2df,p)

Title Card Required 

0  1
C           0.86124         0.12585         0.02554
C           2.37935         0.17862         0.04584
C           2.94221        -1.14939         0.53734
C           4.47706        -1.20921         0.53643
C           5.10219        -0.00450         1.23986
C           6.52279        -0.43466         1.55114
C           6.46164        -1.94162         1.76050
C           5.04624        -2.38909         1.34673
C           5.10775        -3.72125         0.59567
C           3.74451        -4.26817         0.18185
C           3.81132        -5.62073        -0.52798
C           4.44436        -6.68162         0.36188
O           2.45938        -5.96528        -0.86341
C           2.36244        -7.10777        -1.70134
H           0.45524         1.08684        -0.30012
H           0.46845        -0.09625         1.02252
H           0.50619        -0.65004        -0.66146
H           2.69444         0.99434         0.70476
H           2.75647         0.39214        -0.95912
H           2.53140        -1.91287        -0.12574
H           2.55596        -1.37362         1.53677
H           4.84224        -1.25837        -0.49539
H           4.56789         0.22016         2.16801
H           5.08840         0.89063         0.60804
H           6.91533         0.08720         2.42985
H           7.18120        -0.20505         0.70666
H           6.64646        -2.19867         2.81054
H           7.24595        -2.43012         1.17139
H           4.45808        -2.52625         2.26238
H           5.60764        -4.43380         1.26217
H           5.73782        -3.62264        -0.29431
H           3.28184        -3.59437        -0.54143
H           3.06880        -4.31587         1.04417
H           4.38545        -5.49641        -1.45335
H           3.84330        -6.82902         1.26418
H           5.46412        -6.41739         0.64887
H           4.50841        -7.64299        -0.15231
H           1.31636        -7.23925        -1.98965
H           2.67146        -8.00562        -1.16165
H           2.96606        -6.97859        -2.60407

