%chk=CCCCqCqCrOrCqCrqCrCC.chk
%NProcShared=20
# opt freq b3lyp/6-31g(2df,p)

Title Card Required 

0  1
C           0.89462         0.05854         0.14051
C           2.40976        -0.00288         0.17105
C           3.02920         0.71372        -1.02614
C           4.60127         0.71953        -1.12164
C           5.15898        -0.75713        -1.11318
C           6.66517        -0.96023        -1.05118
O           4.72318        -1.46930         0.05153
C           5.06254         1.62112        -2.37283
C           4.54695         0.98407        -3.68194
C           4.48621         3.05660        -2.25507
C           6.60865         1.78222        -2.43968
C           7.18683         2.58827        -3.59522
H           0.49189        -0.49850         0.99172
H           0.51712        -0.40897        -0.77552
H           0.53193         1.08762         0.18589
H           2.63790        -1.06670         0.14989
H           2.79525         0.42407         1.10283
H           2.65951         1.74314        -0.98201
H           2.60860         0.26750        -1.93314
H           4.95708         1.21304        -0.20532
H           4.75425        -1.29680        -1.97371
H           7.11267        -0.29860        -0.30165
H           7.15859        -0.84936        -2.01239
H           6.90118        -1.98664        -0.75071
H           4.96756        -0.95075         0.82859
H           3.45486         0.93727        -3.71405
H           4.93173        -0.03316        -3.80475
H           4.84336         1.55480        -4.56498
H           3.39494         3.08796        -2.27858
H           4.80254         3.68833        -3.09097
H           4.82605         3.53627        -1.32949
H           7.06724         0.82209        -2.60520
H           6.98870         2.16859        -1.48558
H           6.90503         2.14433        -4.55430
H           8.28019         2.54977        -3.54415
H           6.88540         3.63534        -3.57843

