%chk=CCCCqFrC1NCCqCCrCqCrCCqCrC1C.chk
%NProcShared=20
# opt freq b3lyp/6-31g(2df,p)

Title Card Required 

0  1
C           0.97133         0.07594         0.01883
C           2.48553         0.02030         0.03895
C           3.11465         1.25005         0.68707
C           4.65342         1.09858         0.69352
F           4.99179         0.71683        -0.56261
C           5.38472         2.42055         1.11415
N           5.50370         2.41608         2.59130
C           5.52259         3.68710         3.31974
C           4.52244         4.82165         2.92155
C           3.17659         4.26992         2.37342
C           2.11983         5.20377         1.84211
C           5.26791         5.90593         2.08500
C           4.51878         7.25168         2.06523
C           5.69632         5.44681         0.67025
C           6.92327         4.46229         0.65745
C           7.98850         5.02340        -0.29481
C           6.60585         2.94476         0.31523
C           6.34395         2.84862        -1.20412
H           0.57990        -0.83947        -0.43603
H           0.61476         0.92649        -0.57099
H           0.56702         0.15861         1.03132
H           2.83860        -0.06105        -0.99620
H           2.81679        -0.87616         0.57102
H           2.72519         1.39970         1.70135
H           2.81921         2.12191         0.08688
H           4.93445         0.26904         1.34609
H           4.69239         3.14572         0.78757
H           6.27815         1.84190         2.88585
H           6.55058         4.06717         3.35220
H           5.34199         3.44395         4.37769
H           4.25999         5.31032         3.87169
H           2.75507         3.55428         3.08775
H           3.31469         3.69638         1.48363
H           1.74588         5.87891         2.60717
H           1.29152         4.60718         1.44099
H           2.49530         5.74722         0.97095
H           6.19459         6.15112         2.62644
H           3.56661         7.23237         1.54355
H           5.11363         8.02161         1.56447
H           4.32248         7.59649         3.08715
H           5.96339         6.34662         0.10156
H           4.83457         5.04198         0.13124
H           7.41499         4.48481         1.63319
H           7.59511         5.15243        -1.30806
H           8.85450         4.35543        -0.32911
H           8.32536         6.00819         0.03958
H           7.48225         2.33327         0.55906
H           5.46456         3.43962        -1.48244
H           6.20747         1.83439        -1.56608
H           7.19762         3.19411        -1.78759

