%chk=CCCCCCC1CCCqCCCCCrC1.chk
%NProcShared=20
# opt freq b3lyp/6-31g(2df,p)

Title Card Required 

0  1
C           1.02224         0.04719         0.05008
C           2.53999         0.04652         0.05354
C           3.07878        -0.80201         1.19779
C           4.60367        -0.80103         1.20302
C           5.11678        -1.66228         2.34661
C           6.64070        -1.69901         2.37495
C           7.12354        -2.60729         3.49918
C           6.81803        -4.08294         3.26523
C           7.71143        -4.79323         4.26946
C           8.94036        -3.88333         4.45182
C           9.19256        -3.60061         5.93723
C          10.45438        -2.76736         6.15174
C          10.67282        -2.46832         7.62871
C          11.90895        -1.59331         7.81308
C          12.14016        -1.28585         9.28005
C           8.63859        -2.61245         3.64079
H           0.64657         0.66036        -0.77381
H           0.63082         0.45423         0.98776
H           0.63255        -0.96856        -0.07218
H           2.90584         1.07524         0.15004
H           2.90733        -0.34252        -0.90286
H           2.71120        -1.83163         1.10060
H           2.70648        -0.41762         2.15513
H           4.97930         0.22355         1.31031
H           4.97954        -1.19050         0.24993
H           4.71765        -2.67665         2.23152
H           4.74243        -1.27556         3.30163
H           7.03012        -0.68370         2.52617
H           7.02731        -2.04762         1.41075
H           6.67906        -2.28322         4.44828
H           7.08554        -4.37953         2.24551
H           5.76284        -4.32687         3.42603
H           7.99364        -5.78734         3.90670
H           7.16914        -4.93129         5.21171
H           9.82649        -4.37693         4.03344
H           9.29534        -4.55235         6.47350
H           8.32760        -3.08352         6.37325
H          10.38723        -1.81605         5.61587
H          11.32053        -3.30237         5.74430
H          10.78726        -3.40603         8.18455
H           9.79306        -1.95332         8.03462
H          11.78782        -0.65422         7.25972
H          12.78934        -2.10013         7.40091
H          11.28550        -0.74858         9.70330
H          13.03103        -0.66310         9.40052
H          12.28454        -2.20811         9.85123
H           9.12356        -2.68155         2.66075
H           8.98155        -1.68324         4.10483

