%chk=CCCCqOrCCCqCrCCCO.chk
%NProcShared=20
# opt freq b3lyp/6-31g(2df,p)

Title Card Required 

0  1
C           0.87839         0.07766        -0.04470
C           2.39458         0.08808        -0.05112
C           2.94352        -0.50718         1.23928
C           4.47086        -0.49150         1.24975
O           4.95027         0.84539         1.14424
C           4.97486        -1.11878         2.54150
C           6.49963        -1.17475         2.59288
C           7.00419        -1.82942         3.88897
C           6.47451        -3.26203         4.02917
C           8.54215        -1.79383         3.90414
C           9.11928        -2.36893         5.19372
C          10.63645        -2.35157         5.19028
O          11.11212        -2.92853         6.40015
H           0.49629         0.51302        -0.97178
H           0.49068         0.66199         0.79596
H           0.49596        -0.94425         0.04134
H           2.74694         1.11846        -0.17064
H           2.76409        -0.48604        -0.90853
H           2.58228        -1.53750         1.35561
H           2.56217         0.06897         2.09214
H           4.85429        -1.05496         0.39182
H           4.62336         1.33917         1.91155
H           4.55049        -2.12495         2.60677
H           4.61451        -0.54862         3.40705
H           6.90468        -0.15691         2.52071
H           6.87695        -1.72604         1.72222
H           6.63591        -1.23836         4.73822
H           6.81350        -3.88307         3.19354
H           5.38299        -3.29404         4.06129
H           6.79847        -3.72780         4.96196
H           8.88326        -0.75601         3.79029
H           8.93323        -2.34855         3.04175
H           8.80294        -3.40652         5.33857
H           8.73540        -1.81192         6.05726
H          11.02561        -1.33288         5.10931
H          11.02452        -2.94291         4.35586
H          10.72592        -2.42666         7.13360

