%chk=CCCC1CC1CCC1CCCCCCO1.chk
%NProcShared=20
# opt freq b3lyp/6-31g(2df,p)

Title Card Required 

0  1
C           0.98294         0.07307         0.05273
C           2.49701         0.07039         0.06063
C           3.04434        -1.03109         0.96235
C           4.53851        -1.01615         0.94521
C           5.28999         0.20063         1.42288
C           5.30524        -1.05835         2.23177
C           6.56709        -1.84711         2.31372
C           6.36728        -3.05864         3.20783
C           7.64171        -3.87978         3.38713
C           7.81895        -4.91573         2.27248
C           8.89443        -5.97203         2.55255
C           8.91585        -6.47118         4.00341
C          10.01888        -5.83742         4.86281
C           9.85968        -4.34952         5.19581
C           9.97703        -3.45319         3.96843
O           8.73140        -2.96899         3.49637
H           0.61355         0.88675        -0.57766
H           0.59075         0.21790         1.06438
H           0.59554        -0.87218        -0.33804
H           2.85089         1.04906         0.40552
H           2.87835        -0.05938        -0.95921
H           2.69379        -2.01150         0.61927
H           2.66744        -0.90110         1.98479
H           4.93729        -1.54970         0.08612
H           4.73847         1.03848         1.83683
H           6.18901         0.48732         0.88788
H           4.77386        -1.02353         3.17961
H           7.34156        -1.19241         2.72835
H           6.90748        -2.16549         1.32097
H           5.53836        -3.68634         2.85691
H           6.06449        -2.69684         4.20123
H           7.47242        -4.38275         4.33832
H           8.05048        -4.42226         1.32041
H           6.86953        -5.44866         2.12840
H           9.87875        -5.60357         2.24913
H           8.70816        -6.82323         1.88577
H           9.09002        -7.55321         3.98621
H           7.93878        -6.35596         4.48679
H          10.98730        -5.99037         4.37069
H          10.06597        -6.38608         5.81089
H          10.65754        -4.07777         5.89659
H           8.92371        -4.17522         5.73800
H          10.54036        -3.90971         3.15062
H          10.55798        -2.56261         4.23434

