%chk=CCCC1CCC1qCCrCqCrqCCrCqCrCNCC.chk
%NProcShared=20
# opt freq b3lyp/6-31g(2df,p)

Title Card Required 

0  1
C           0.54123         0.23841         0.03292
C           2.02535         0.26750         0.28605
C           2.76435         1.50619        -0.24109
C           4.31044         1.42327        -0.20317
C           5.03705         2.54558         0.57998
C           6.13285         1.55027         0.95135
C           5.17340         0.34558         0.61603
C           4.54714        -0.22361         1.93549
C           3.87145         0.77173         2.87339
C           5.83369        -0.84806        -0.26702
C           6.53843        -0.33896        -1.55003
C           6.91427        -1.59056         0.61414
C           8.12208        -0.76830         1.05806
C           4.69731        -1.86932        -0.74618
C           3.78304        -1.30178        -1.86453
C           5.22057        -3.21155        -1.28958
N           4.11518        -4.13986        -1.50880
C           4.57440        -5.30512        -2.23353
C           3.39326        -6.21167        -2.50026
H           0.16159        -0.74407         0.33965
H           0.30359         0.38693        -1.02086
H           0.05105         0.99586         0.64746
H           2.42777        -0.66123        -0.09321
H           2.11188         0.17684         1.36087
H           2.42853         2.38695         0.31395
H           2.46730         1.68495        -1.28394
H           4.65656         1.51934        -1.24565
H           4.49997         2.95295         1.43972
H           5.39768         3.39348        -0.01221
H           6.46759         1.63468         1.99080
H           7.01571         1.66220         0.31482
H           5.30750        -0.72794         2.53521
H           3.81903        -1.00193         1.69975
H           4.60505         1.36170         3.42207
H           3.25822         0.22063         3.59490
H           3.20468         1.47877         2.37851
H           7.31388         0.40137        -1.35956
H           5.84752         0.12046        -2.26024
H           7.01457        -1.17274        -2.08014
H           7.33764        -2.43055         0.05596
H           6.45235        -2.04023         1.49953
H           8.63526        -0.31604         0.20552
H           8.84668        -1.40422         1.57412
H           7.85571         0.01198         1.76896
H           4.08239        -2.12965         0.12127
H           4.22401        -1.40759        -2.85796
H           3.57526        -0.24897        -1.76197
H           2.80772        -1.80233        -1.87349
H           5.90674        -3.69305        -0.58620
H           5.75703        -3.03203        -2.22897
H           3.36910        -3.68897        -2.06119
H           5.32784        -5.83496        -1.63552
H           5.03015        -5.00864        -3.18572
H           2.91374        -6.51724        -1.56389
H           3.72566        -7.10617        -3.02956
H           2.64137        -5.70517        -3.11836

