%chk=CCCCC1CCCqCrCCCCOC1.chk
%NProcShared=20
# opt freq b3lyp/6-31g(2df,p)

Title Card Required 

0  1
C           0.84105        -0.06645         0.02775
C           2.35021        -0.02010         0.06978
C           2.83958         0.42952         1.44460
C           4.34685         0.58763         1.38525
C           5.00913         0.82796         2.74648
C           5.37376        -0.45990         3.55416
C           5.17517        -1.84286         2.89680
C           6.39528        -2.48148         2.18033
C           7.48606        -2.81655         3.20714
C           6.98130        -1.70235         0.97427
C           7.95779        -0.60772         1.40153
C           8.22070         0.49929         0.39165
C           7.95782         1.89068         0.98383
O           6.58651         2.08913         1.30349
C           6.18980         1.84188         2.65459
H           0.49962        -0.36515        -0.96624
H           0.42458         0.92043         0.25607
H           0.45895        -0.78317         0.75967
H           2.72051         0.66062        -0.70552
H           2.75687        -1.01538        -0.16210
H           2.54245        -0.29400         2.20835
H           2.39247         1.39756         1.71141
H           4.55610         1.39046         0.67702
H           4.74872        -0.30581         0.91722
H           4.26691         1.33610         3.38262
H           4.74125        -0.45324         4.45439
H           6.38070        -0.38488         3.97330
H           4.30153        -1.86065         2.23847
H           4.89028        -2.53651         3.70324
H           6.03157        -3.43786         1.77751
H           7.87493        -1.92193         3.70358
H           8.32991        -3.31590         2.72278
H           7.09772        -3.47144         3.99160
H           6.18992        -1.32469         0.32520
H           7.52340        -2.40747         0.33050
H           8.91196        -1.07528         1.66589
H           7.61238        -0.16125         2.32321
H           7.62532         0.35786        -0.51785
H           9.27669         0.45066         0.09833
H           8.20506         2.63100         0.21617
H           8.60276         2.09795         1.84599
H           5.82374         2.80429         3.03239
H           7.03264         1.58457         3.30663

