%chk=CCCCC1CCCCqCrC1CCCCCO.chk
%NProcShared=20
# opt freq b3lyp/6-31g(2df,p)

Title Card Required 

0  1
C           1.00782         0.05507         0.09878
C           2.51983         0.13326         0.24985
C           3.06426        -1.09224         1.00056
C           4.60005        -1.21859         1.12608
C           5.16089        -2.62165         0.72341
C           6.70200        -2.63915         0.77678
C           7.25438        -4.05716         0.59317
C           6.73939        -4.74685        -0.67054
C           5.20815        -4.71055        -0.74167
C           4.69156        -5.41062        -2.00511
C           4.68545        -3.24850        -0.63837
C           5.09389        -2.46099        -1.91545
C           4.46834        -1.10137        -1.98514
C           4.90328        -0.21280        -3.12033
C           4.35056         1.19159        -2.86678
C           4.73916         2.11713        -3.99449
O           4.20615         3.40742        -3.77001
H           0.64651         0.86776        -0.54030
H           0.51932         0.12672         1.07196
H           0.71004        -0.88771        -0.37641
H           2.82721         1.06549         0.73011
H           2.89125         0.20290        -0.76295
H           2.64034        -1.98870         0.54321
H           2.65118        -1.06507         2.01424
H           4.85609        -1.04768         2.18118
H           5.14524        -0.40474         0.63896
H           4.80903        -3.29428         1.52143
H           7.05680        -2.23909         1.73381
H           7.11337        -1.98391        -0.00028
H           6.97389        -4.66230         1.46427
H           8.34923        -4.02506         0.56849
H           7.08937        -5.78549        -0.68880
H           7.17612        -4.26562        -1.55351
H           4.81598        -5.27599         0.11601
H           5.07711        -4.95422        -2.92142
H           3.59686        -5.37042        -2.04207
H           4.99727        -6.45938        -2.03150
H           3.59256        -3.32677        -0.62049
H           4.74549        -2.98230        -2.80899
H           6.17971        -2.37361        -1.99802
H           4.77366        -0.54756        -1.11711
H           3.38273        -1.23549        -2.00673
H           4.53974        -0.61529        -4.06885
H           5.99784        -0.17187        -3.15378
H           4.72303         1.59580        -1.91285
H           3.25717         1.16929        -2.76413
H           4.36171         1.73222        -4.94564
H           5.83017         2.19880        -4.05451
H           3.22980         3.31091        -3.70412

