%chk=CCCCCCCCCdCqCCCrOO.chk
%NProcShared=20
# opt freq b3lyp/6-31g(2df,p)

Title Card Required 

0  1
C           0.87718         0.01366         0.00841
C           2.39267         0.01387         0.01125
C           2.91387         0.11995         1.43333
C           4.43240         0.12109         1.44860
C           4.89808         0.22830         2.88579
C           6.40137         0.23462         2.97047
C           6.79426         0.34474         4.44667
C           8.29291         0.34797         4.49002
C           8.98804         0.44606         5.80484
C          10.32006         0.45964         5.98692
C          11.40794         0.37795         4.89193
C          10.89241         0.27056         3.45227
C          11.85799         0.18497         2.30494
O          10.73010         0.55957         7.32660
O          12.17386         0.56422         7.38890
H           0.50175        -0.06267        -1.01481
H           0.48945         0.93617         0.45256
H           0.48945        -0.83274         0.58452
H           2.76434         0.85529        -0.58463
H           2.76434        -0.90664        -0.45320
H           2.54182        -0.71981         2.03404
H           2.54182         1.03955         1.90280
H           4.81898         0.96337         0.86180
H           4.81898        -0.79892         0.99326
H           4.51150        -0.61518         3.46950
H           4.51150         1.14905         3.33789
H           6.81347         1.07314         2.39048
H           6.81347        -0.68067         2.52131
H           6.40260        -0.50627         5.01201
H           6.40260         1.27021         4.87949
H           8.57384         1.21424         3.88812
H           8.57384        -0.59800         4.02331
H           8.34045         0.51125         6.67882
H          12.03991        -0.49557         5.09086
H          12.03991         1.27133         4.95906
H          10.30278         1.16084         3.22986
H          10.30278        -0.64286         3.36441
H          12.47162         1.08298         2.24315
H          11.26206         0.11619         1.38279
H          12.47162        -0.71226         2.37706
H          12.22223         0.63653         8.35829

