%chk=CCCNCqCCCOCCrCC1CqCrCCC1O.chk
%NProcShared=20
# opt freq b3lyp/6-31g(2df,p)

Title Card Required 

0  1
C           0.97115        -0.13484         0.02846
C           2.49136        -0.30507        -0.06825
C           3.07629         1.06151        -0.31767
N           4.53126         1.20979        -0.32965
C           4.86813         2.66152        -0.27473
C           4.33622         3.24120         1.06347
C           2.88392         3.76823         0.97104
C           2.48286         4.78911         2.00439
O           1.05458         4.82136         1.93816
C           0.51008         5.59247         2.99069
C          -0.99774         5.50887         2.91550
C           6.39022         2.85010        -0.36986
C           6.98304         4.29462        -0.51969
C           6.22180         5.65846        -0.58560
C           5.05716         6.00055         0.31649
C           7.30621         6.68278        -0.23463
C           8.19142         5.99859         0.79668
C           8.06069         4.50167         0.56049
O           9.29905         3.93626         0.15038
H           0.48968        -1.09156         0.23347
H           0.56414         0.28106        -0.89978
H           0.69562         0.55887         0.83605
H           2.77490        -1.00839        -0.84752
H           2.85970        -0.66999         0.89965
H           2.74315         1.51417         0.58541
H           2.62148         1.56870        -1.17783
H           4.92920         0.76112        -1.13461
H           4.43725         3.16206        -1.15087
H           5.02942         3.98944         1.41670
H           4.41427         2.50359         1.87223
H           2.15517         2.98471         1.16118
H           2.63606         4.11720        -0.04157
H           2.86808         5.78704         1.78893
H           2.81089         4.45952         2.99432
H           0.84265         6.62707         2.87335
H           0.85801         5.19655         3.94991
H          -1.35900         5.84158         1.93686
H          -1.44575         6.12918         3.69468
H          -1.33732         4.47511         3.04433
H           6.77227         2.25736        -1.21681
H           6.83956         2.35640         0.50439
H           7.51008         4.25075        -1.48923
H           5.86723         5.81812        -1.61149
H           5.28354         5.82647         1.37344
H           4.19130         5.46356        -0.04356
H           4.75247         7.05066         0.26633
H           6.89218         7.60946         0.18459
H           7.87101         6.95514        -1.12856
H           7.81521         6.22025         1.80362
H           9.21964         6.36250         0.73743
H           7.77878         4.01565         1.50033
H           9.59873         4.40360        -0.64645

