%chk=CCCOCCCCOCCCCCCOOCC.chk
%NProcShared=20
# opt freq b3lyp/6-31g(2df,p)

Title Card Required 

0  1
C           0.96996         0.10906         0.01382
C           2.48762         0.08890         0.04306
C           2.98245        -0.72686         1.22584
O           4.40734        -0.73285         1.23453
C           4.88461        -1.49544         2.34022
C           6.40048        -1.48518         2.32535
C           6.94659        -2.29144         3.49435
C           8.46148        -2.27927         3.47671
O           8.93479        -3.04157         4.58197
C          10.35728        -3.04679         4.58955
C          10.84040        -3.86301         5.77301
C          12.36199        -3.87834         5.79523
C          12.87945        -4.69025         6.97243
C          14.40100        -4.69552         6.98006
C          14.92938        -5.50308         8.15097
O          16.35037        -5.46662         8.09810
O          16.78388        -6.25392         9.23962
C          18.20535        -6.22038         9.19099
C          18.72750        -7.02647        10.35976
H           0.60870         0.69495        -0.83566
H           0.57006         0.55261         0.93169
H           0.57006        -0.90651        -0.07465
H           2.87929         1.11101         0.10501
H           2.87929        -0.33217        -0.89034
H           2.61763        -1.75765         1.14899
H           2.61763        -0.28877         2.16206
H           4.51663        -2.52469         2.26011
H           4.51663        -1.05485         3.27385
H           6.76421        -0.45110         2.36886
H           6.76421        -1.89327         1.37420
H           6.58527        -3.32646         3.45231
H           6.58527        -1.88439         4.44690
H           8.83082        -1.25071         3.55811
H           8.83082        -2.72081         2.54418
H          10.72534        -2.01742         4.66874
H          10.72534        -3.48656         3.65549
H          10.44339        -4.88319         5.70810
H          10.44339        -3.43986         6.70356
H          12.74077        -2.85100         5.85922
H          12.74077        -4.30318         4.85766
H          12.50389        -5.71802         6.90724
H          12.50389        -4.26414         7.90997
H          14.78803        -3.67083         7.03622
H          14.78803        -5.11209         6.04219
H          14.59037        -6.54230         8.08575
H          14.59037        -5.07288         9.09920
H          18.54672        -5.18249         9.25858
H          18.54672        -6.65233         8.24484
H          18.36334        -6.60991        11.30442
H          19.82037        -7.03438        10.37122
H          18.36334        -8.05750        10.30602

