%chk=CCCqCOrCCCqCrCqCrOC.chk
%NProcShared=20
# opt freq b3lyp/6-31g(2df,p)

Title Card Required 

0  1
C           1.02734        -0.17820        -0.09056
C           2.53808        -0.06584         0.00251
C           3.03997         1.34431         0.37254
C           2.54685         1.82249         1.75433
O           1.13722         1.98214         1.81452
C           4.58194         1.33027         0.30396
C           5.17220         2.70700         0.58240
C           6.70330         2.76655         0.59277
C           7.26867         2.35250        -0.77076
C           7.17390         4.19097         1.00338
C           6.62717         4.60737         2.37778
O           8.60737         4.19101         1.02940
C           9.16898         5.48262         1.22426
H           0.74011        -1.17089        -0.44532
H           0.62585         0.56951        -0.78168
H           0.55509        -0.04891         0.88522
H           2.95788        -0.34943        -0.97207
H           2.91504        -0.79686         0.72794
H           2.66773         2.04102        -0.39120
H           2.94542         2.80573         2.00835
H           2.85855         1.12344         2.53586
H           0.86261         2.47168         1.02633
H           4.88461         0.98810        -0.69153
H           4.98276         0.61033         1.02882
H           4.83715         2.99923         1.57415
H           4.76879         3.43839        -0.12890
H           7.08417         2.04973         1.33340
H           6.89731         3.01070        -1.56310
H           6.98232         1.32667        -1.02523
H           8.36139         2.38022        -0.77847
H           6.83230         4.90424         0.24151
H           6.98817         3.92422         3.15403
H           5.53651         4.64347         2.41135
H           6.95228         5.61269         2.65562
H          10.25342         5.40710         1.12266
H           8.96311         5.84769         2.23358
H           8.78717         6.18861         0.48088

