%chk=CCCqCrCCCCOCCqCrCC.chk
%NProcShared=20
# opt freq b3lyp/6-31g(2df,p)

Title Card Required 

0  1
C           0.99055        -0.16322         0.05572
C           2.50967        -0.06830         0.07950
C           3.02614         1.35011        -0.22529
C           2.50034         2.36660         0.79748
C           4.56840         1.33775        -0.26010
C           5.13450         2.70497        -0.62779
C           6.65328         2.72049        -0.63571
C           7.12197         4.12962        -0.95904
O           8.54008         4.15214        -0.93068
C           9.02835         5.44572        -1.27334
C          10.55824         5.40391        -1.30610
C          11.03595         4.35939        -2.32183
C          11.09298         6.80982        -1.61922
C          12.61079         6.88846        -1.60006
H           0.67183        -1.19408         0.23460
H           0.59628         0.15804        -0.91266
H           0.53538         0.45344         0.83607
H           2.91136        -0.76857        -0.66470
H           2.87795        -0.39986         1.05660
H           2.66420         1.64311        -1.21809
H           2.85269         2.12433         1.80441
H           1.40825         2.40094         0.81001
H           2.81620         3.38610         0.55975
H           4.91323         0.60004        -0.99757
H           4.96346         1.02247         0.71190
H           4.80884         3.45709         0.09764
H           4.75120         3.01101        -1.60734
H           7.05141         2.01020        -1.36979
H           7.04901         2.41341         0.33897
H           6.73400         4.83875        -0.21799
H           6.76425         4.42389        -1.95206
H           8.68199         6.16803        -0.52381
H           8.63393         5.74071        -2.25267
H          10.91432         5.09080        -0.31725
H          10.71485         4.62227        -3.33445
H          10.63835         3.36599        -2.08775
H          12.12569         4.26752        -2.31892
H          10.69989         7.51879        -0.87861
H          10.72571         7.14129        -2.59717
H          13.00400         6.57343        -0.62932
H          12.93673         7.91594        -1.78729
H          13.05521         6.25913        -2.37622

