%chk=CCCqCrC1CCqCrCCC1C.chk
%NProcShared=20
# opt freq b3lyp/6-31g(2df,p)

Title Card Required 

0  1
C           0.64830        -0.11403         0.03078
C           2.16049        -0.08169        -0.00531
C           2.87742        -0.60098        -1.26358
C           2.30253         0.04954        -2.53924
C           4.46913        -0.51584        -1.17456
C           5.04605         0.71106        -1.90066
C           4.69326         1.99730        -1.15281
C           5.16120         3.21194        -1.93766
C           5.23026         1.99051         0.28408
C           4.89554         0.72285         1.07626
C           5.08949        -0.57803         0.26551
C           6.60921        -0.84330         0.23126
H           0.32132         0.26842         1.00534
H           0.26835        -1.13048        -0.08497
H           0.21418         0.53799        -0.72999
H           2.49907        -0.66815         0.85494
H           2.41903         0.96596         0.15101
H           2.63515        -1.67159        -1.33593
H           2.46803         1.13118        -2.56660
H           1.22122        -0.09108        -2.61682
H           2.74899        -0.38113        -3.44072
H           4.83200        -1.39959        -1.72173
H           4.70563         0.74351        -2.94044
H           6.13793         0.61924        -1.99011
H           3.60417         2.09672        -1.09364
H           6.25304         3.23634        -2.01953
H           4.82255         4.13027        -1.45130
H           4.74078         3.19540        -2.94919
H           4.83224         2.85553         0.82398
H           6.32177         2.10905         0.26604
H           3.88194         0.80451         1.47560
H           5.50151         0.69191         1.98903
H           4.64035        -1.42033         0.80560
H           7.16287        -0.02533        -0.23899
H           6.84679        -1.76646        -0.30267
H           6.99891        -0.93129         1.25235

