%chk=CCCqOrCCOCCdCCNOCCtN.chk
%NProcShared=20
# opt freq b3lyp/6-31g(2df,p)

Title Card Required 

0  1
C           1.04662        -0.03029        -0.03499
C           2.56747        -0.04113        -0.05230
C           3.10317        -1.03779        -1.07803
O           2.62482        -0.69642        -2.37891
C           4.62854        -1.05881        -1.08751
C           5.13197        -2.06451        -2.10898
O           6.55790        -2.06853        -2.10458
C           7.02967        -3.00507        -3.06803
C           8.51820        -2.99163        -3.05929
C           9.22928        -3.79776        -3.86593
C          10.72028        -3.83589        -3.89731
N          11.12828        -4.81318        -4.90923
O          12.58514        -4.72667        -4.94214
C          13.06994        -5.72317        -5.84340
C          14.58994        -5.72317        -5.84340
N          15.85090        -5.72317        -5.84340
H           0.68070         0.68515         0.70639
H           0.65625        -1.02094         0.21912
H           0.64201         0.25689        -1.01075
H           2.94198        -0.29537         0.94599
H           2.92077         0.96889        -0.29217
H           2.72419        -2.04053        -0.84679
H           2.93064         0.20503        -2.58202
H           5.01972        -1.30930        -0.09395
H           5.02757        -0.06790        -1.33875
H           4.78025        -1.79813        -3.11233
H           4.76474        -3.06651        -1.85776
H           6.66193        -2.71983        -4.06071
H           6.66389        -4.00478        -2.80702
H           9.01940        -2.31560        -2.37351
H           8.69338        -4.46910        -4.53360
H          11.10852        -4.12310        -2.91416
H          11.11117        -2.84588        -4.16207
H          10.86840        -4.41408        -5.81346
H          12.72299        -5.48674        -6.85604
H          12.70797        -6.71692        -5.55585

