%chk=CCCqCrCCCqCCrqCCrC1CCqCrC1.chk
%NProcShared=20
# opt freq b3lyp/6-31g(2df,p)

Title Card Required 

0  1
C           0.95901         0.03339        -0.03424
C           2.47123        -0.07808        -0.02509
C           2.96097        -1.48518         0.36966
C           2.49325        -2.53832        -0.63807
C           4.48746        -1.43195         0.49091
C           5.15669        -2.77582         0.80995
C           6.71554        -2.82058         0.70203
C           7.16862        -2.97566        -0.78241
C           6.69912        -1.95701        -1.79892
C           7.17029        -4.12703         1.42097
C           8.63958        -4.51300         1.23383
C           7.29848        -1.53022         1.35448
C           8.81227        -1.24502         1.48167
C           8.73549        -1.52403         3.01912
C           9.15462        -2.80744         3.73338
C           7.20340        -1.30379         2.90159
H           0.65427         1.05377        -0.27772
H           0.55345        -0.22761         0.94882
H           0.51382        -0.62863        -0.78100
H           2.87436         0.66471         0.67467
H           2.86107         0.18962        -1.01850
H           2.55196        -1.73976         1.35896
H           2.88145        -2.31874        -1.64033
H           1.40411        -2.58570        -0.69331
H           2.81438        -3.54424        -0.36016
H           4.73581        -0.71236         1.27855
H           4.87833        -0.99719        -0.43253
H           4.77469        -3.56605         0.15881
H           4.84375        -3.05003         1.82918
H           6.84024        -3.96168        -1.14151
H           8.26216        -2.97966        -0.83221
H           5.62874        -2.05707        -1.99512
H           7.20267        -2.13505        -2.75400
H           6.93382        -0.93927        -1.48074
H           6.57973        -4.97463         1.05576
H           6.90690        -4.06345         2.48533
H           8.83821        -4.87475         0.21914
H           8.93339        -5.29323         1.93663
H           9.32206        -3.68594         1.38733
H           6.86053        -0.67237         0.82551
H           9.02851        -0.18318         1.27732
H           9.48433        -1.80189         0.83516
H           9.25278        -0.72039         3.55483
H           8.46944        -3.63780         3.59295
H           9.17131        -2.65800         4.81740
H          10.15256        -3.13328         3.42260
H           6.91456        -0.27866         3.17229
H           6.56076        -1.98773         3.45588

