%chk=CCdCNCC1CCCqCqCrCrCCS1.chk
%NProcShared=20
# opt freq b3lyp/6-31g(2df,p)

Title Card Required 

0  1
C           0.89657        -0.02597        -0.00888
C           2.38073        -0.05863         0.00658
C           3.05234        -0.81576         0.88738
N           4.39626        -0.98082         0.89818
C           5.17591        -1.59108         1.96105
C           6.68409        -1.36097         1.73659
C           7.30507        -2.57107         1.03217
C           8.82054        -2.48447         0.85645
C           9.19131        -1.61353        -0.35843
C          10.38166        -2.20751        -1.15681
C          10.09890        -3.63179        -1.65525
C          10.70992        -1.33325        -2.37377
C           9.49671        -0.14712         0.04782
C           8.66504         0.48156         1.15127
S           6.92011         0.25219         0.85692
H           0.54336         0.60659        -0.82797
H           0.50734         0.37315         0.93154
H           0.50218        -1.03490        -0.16837
H           2.91649         0.50535        -0.75004
H           2.53013        -1.38373         1.64940
H           4.92542        -0.29622         0.34676
H           4.94737        -2.66172         1.99741
H           4.90133        -1.16379         2.93228
H           7.15951        -1.27279         2.72063
H           6.81575        -2.75892         0.06685
H           7.10149        -3.46508         1.63863
H           9.17347        -3.51133         0.74750
H           9.31185        -2.13037         1.76958
H           8.33782        -1.59775        -1.05283
H          11.25937        -2.23681        -0.49868
H           9.21673        -3.65093        -2.30389
H           9.92847        -4.34392        -0.84490
H          10.95399        -4.01606        -2.21877
H           9.85153        -1.27844        -3.05322
H          11.56180        -1.74003        -2.92473
H          10.97667        -0.31227        -2.08679
H           9.38442         0.48568        -0.84330
H          10.54552        -0.06564         0.35521
H           8.84194         1.56066         1.17779
H           8.93432         0.09305         2.13644

