%chk=CCOCqdOrCqCCOCCqCrCrOC.chk
%NProcShared=20
# opt freq b3lyp/6-31g(2df,p)

Title Card Required 

0  1
C           1.06040        -0.10924        -0.04683
C           2.58344        -0.14272        -0.03253
O           3.08693        -0.17062        -1.38114
C           4.44605        -0.03647        -1.50617
O           5.20907        -0.04508        -0.54406
C           4.87779         0.10148        -2.99673
C           4.32635         1.38282        -3.63249
C           2.82057         1.39403        -3.68265
O           2.37427         2.57810        -4.31997
C           0.94951         2.59024        -4.29881
C           0.45267         3.87009        -4.94738
C           0.97474         3.97450        -6.37831
C          -1.06991         3.88012        -4.92433
O           6.31455         0.10965        -3.07344
C           6.84096         0.13891        -4.39378
H           0.66303        -0.15756         0.97303
H           0.65426        -0.94922        -0.61897
H           0.68548         0.80774        -0.51535
H           2.92097        -1.04557         0.48325
H           2.95220         0.74688         0.49250
H           4.51673        -0.79107        -3.52437
H           4.66992         1.49612        -4.66729
H           4.71460         2.26850        -3.11434
H           2.39548         1.40727        -2.68314
H           2.46145         0.52026        -4.23924
H           0.59747         2.53147        -3.26062
H           0.57941         1.71159        -4.84175
H           0.83566         4.72730        -4.37884
H           0.63702         3.12170        -6.97720
H           2.06984         3.98742        -6.40205
H           0.61933         4.89297        -6.85245
H          -1.47230         3.02716        -5.48240
H          -1.45771         4.79807        -5.37320
H          -1.44416         3.81508        -3.89687
H           7.93035         0.08279        -4.33365
H           6.60860         1.08154        -4.89592
H           6.46767        -0.70506        -4.98022

