%chk=CCqCCCC1CCCCqCrO1rOO.chk
%NProcShared=20
# opt freq b3lyp/6-31g(2df,p)

Title Card Required 

0  1
C           1.05251        -0.03403         0.08477
C           2.57768         0.02583         0.06225
C           3.07429         1.43642        -0.25101
C           2.60518         1.92292        -1.61807
C           3.15676         3.31180        -1.87900
C           2.67779         3.86741        -3.23082
C           1.81084         5.11752        -3.04736
C           2.65211         6.27628        -2.52356
C           3.83291         6.50305        -3.45624
C           4.63343         5.21472        -3.63949
C           5.75520         5.42192        -4.64690
O           3.78885         4.15250        -4.09636
O           3.03702        -0.36607         1.36339
O           4.48210        -0.51807         1.25457
H           0.61421         0.21814        -0.88510
H           0.65072         0.65533         0.83601
H           0.70980        -1.03731         0.35134
H           2.95673        -0.68631        -0.68030
H           4.17164         1.46097        -0.21709
H           2.74751         2.12822         0.53703
H           1.51288         1.97354        -1.65996
H           2.94183         1.23073        -2.39836
H           4.24735         3.26039        -1.82049
H           2.81629         3.95027        -1.05532
H           2.07387         3.11388        -3.75216
H           0.97222         4.91354        -2.37162
H           1.38470         5.40437        -4.01720
H           3.02469         6.05616        -1.51603
H           2.04536         7.18248        -2.44175
H           4.47605         7.29536        -3.06104
H           3.44579         6.83566        -4.42718
H           5.09998         4.92654        -2.69203
H           5.35953         5.70084        -5.62882
H           6.33207         4.50102        -4.78233
H           6.43417         6.20959        -4.30482
H           4.63836        -0.68789         2.20584

