%chk=CCqCrCqCrCqOrC1CC1O.chk
%NProcShared=20
# opt freq b3lyp/6-31g(2df,p)

Title Card Required 

0  1
C           0.98135         0.00225        -0.07943
C           2.51801         0.06087        -0.10907
C           2.97187        -0.90580        -1.21332
C           3.05574         1.54525        -0.25158
C           2.48524         2.38424         0.90109
C           4.60841         1.60789        -0.26557
O           5.10495         0.81685        -1.34782
C           5.36979         2.89279        -0.41479
C           4.91273         4.14237        -1.11965
C           5.21191         4.17544         0.36008
O           6.44375         4.79353         0.75660
H           0.63099        -1.03201         0.00926
H           0.56097         0.42662        -0.99720
H           0.55973         0.53524         0.77537
H           2.88306        -0.34136         0.84629
H           2.72435        -0.51194        -2.20459
H           2.48700        -1.88250        -1.10613
H           4.04147        -1.11948        -1.16848
H           2.67137         1.94394        -1.19955
H           2.85732         2.02661         1.86760
H           1.39386         2.37831         0.93056
H           2.72883         3.43520         0.79214
H           4.96705         1.13033         0.65396
H           4.69567         1.15125        -2.16379
H           6.40769         2.61107        -0.60002
H           3.87942         4.26961        -1.41721
H           5.61871         4.61877        -1.79368
H           4.36795         4.39057         0.99823
H           7.21309         4.41120         0.29451

