%chk=CCqCCCCOrC1CCCCCCO1.chk
%NProcShared=20
# opt freq b3lyp/6-31g(2df,p)

Title Card Required 

0  1
C           0.94188        -0.07585         0.07935
C           2.48579        -0.00576         0.02162
C           2.95289         0.92328        -1.10214
C           2.46208         0.45528        -2.46231
C           2.96831         1.37204        -3.55958
C           2.45096         0.89282        -4.90371
O           2.91215         1.75931        -5.92875
C           2.98901         0.47230         1.40453
C           3.36862        -0.70973         2.30108
C           3.38168        -0.37706         3.79573
C           2.22270         0.52720         4.23443
C           2.61768         2.00296         4.39823
C           2.99149         2.78493         3.12674
C           4.26063         2.26562         2.43855
O           4.04529         1.42366         1.30338
H           0.50645        -0.49638        -0.82965
H           0.51660         0.92717         0.21848
H           0.60411        -0.69895         0.91373
H           2.86079        -1.01677        -0.18342
H           4.05009         0.95065        -1.11806
H           2.60594         1.94701        -0.91163
H           1.36817         0.45408        -2.49561
H           2.79741        -0.57375        -2.63972
H           4.06429         1.40306        -3.56374
H           2.63443         2.40063        -3.37414
H           1.35578         0.88236        -4.92121
H           2.80559        -0.12008        -5.11432
H           2.60367         2.64979        -5.71070
H           2.12278         0.98079         1.80799
H           4.35560        -1.09754         2.01582
H           2.65188        -1.52658         2.15157
H           4.34530         0.05262         4.08541
H           3.32713        -1.32365         4.34676
H           1.86211         0.16735         5.20472
H           1.35580         0.43021         3.56946
H           3.45249         2.06640         5.10698
H           1.77568         2.52227         4.87248
H           3.16660         3.82462         3.42913
H           2.14005         2.83213         2.43796
H           4.93850         1.77132         3.13926
H           4.82856         3.12610         2.06626

