%chk=CCqOrqCOrCqCrqOrOCCO.chk
%NProcShared=20
# opt freq b3lyp/6-31g(2df,p)

Title Card Required 

0  1
C           1.03518        -0.13812        -0.02279
C           2.57240        -0.03994        -0.00800
O           3.05204        -1.27377         0.57829
C           3.11932         0.02940        -1.45278
O           2.64422        -1.07316        -2.23278
C           3.07867         1.19948         0.84663
C           2.53611         2.52015         0.27389
O           2.63993         1.09704         2.20249
O           4.51980         1.22082         0.82486
C           5.07922         2.23819         1.65352
C           6.59878         2.19960         1.63009
O           7.12672         3.28947         2.38380
H           0.69231        -1.01541        -0.58113
H           0.57493         0.74053        -0.48173
H           0.63310        -0.25884         0.98791
H           2.63560        -2.01290         0.10198
H           4.21387         0.00154        -1.47629
H           2.78540         0.93737        -1.96168
H           3.13030        -1.85897        -1.92997
H           1.44532         2.53413         0.23450
H           2.94590         2.72144        -0.71990
H           2.79852         3.37351         0.90519
H           1.67616         0.97315         2.20848
H           4.73022         2.14687         2.68819
H           4.78171         3.22377         1.28627
H           6.97144         2.27120         0.60347
H           6.97216         1.26313         2.05396
H           6.74446         4.10779         2.02194

