%chk=CdC1CCqCCrdCCqNCOrC1C.chk
%NProcShared=20
# opt freq b3lyp/6-31g(2df,p)

Title Card Required 

0  1
C           0.74985        -0.13189        -0.18258
C           2.09217        -0.06223        -0.10760
C           2.90265        -1.30933         0.02603
C           4.39271        -1.13011         0.04883
C           5.12338        -2.45870         0.04311
C           6.63792        -2.36338         0.04900
C           5.00303         0.08262         0.08702
C           4.31232         1.42626         0.10119
N           4.84080         2.22307         1.23538
C           4.48659         3.62268         1.30353
O           4.99897         4.09796         2.52825
C           2.74659         1.29495         0.04773
C           2.08575         1.88043         1.29824
H           0.20683        -1.06645        -0.11115
H           0.14875         0.77688        -0.20474
H           2.64276        -1.97159        -0.81136
H           2.61109        -1.81394         0.95654
H           4.81095        -3.03457        -0.83917
H           4.80318        -3.03593         0.92154
H           6.99037        -1.83387        -0.84242
H           7.09123        -3.35740         0.05541
H           6.98392        -1.82729         0.93889
H           6.08726         0.12901         0.07626
H           4.65118         1.91551        -0.82576
H           5.85857         2.20337         1.21706
H           3.44391         3.89841         1.37773
H           4.86470         4.20239         0.46015
H           4.49102         3.58937         3.18924
H           2.44692         1.88803        -0.82965
H           2.60774         1.55705         2.20616
H           1.03093         1.66519         1.45585
H           2.04492         2.94920         1.16782

