%chk=CdCCCCdSqCCCrCCqdCrCqCrC.chk
%NProcShared=20
# opt freq b3lyp/6-31g(2df,p)

Title Card Required 

0  1
C           0.86745        -0.03039         0.04518
C           2.20998        -0.08042         0.08515
C           2.93404        -0.68522         1.25159
C           4.42237        -0.56710         1.04990
C           5.22493        -1.05830         2.22028
S           6.97898        -1.15557         1.93322
C           7.40987         0.62777         2.07650
C           7.08647         1.34479         0.76816
C           7.61527         2.75745         0.68884
C           7.58133        -1.72799         3.57014
C           9.11776        -1.79786         3.59567
C           9.87755        -1.38173         2.55810
C           9.79511        -2.39218         4.84323
C           9.41598        -3.86480         5.04619
C          11.33391        -2.31559         4.75446
H           0.35282         0.40941        -0.79792
H           0.28336        -0.43313         0.86243
H           2.77935         0.34112        -0.74061
H           2.66186        -1.73537         1.38079
H           2.67003        -0.13769         2.16479
H           4.59254         0.49499         0.93558
H           4.76199        -1.07039         0.13553
H           4.72051        -1.39475         3.13698
H           8.48901         0.72044         2.22262
H           6.93601         1.08453         2.94975
H           6.02039         1.46999         0.65696
H           7.43139         0.76013        -0.09334
H           7.23996         3.34937         1.52866
H           7.24945         3.21926        -0.23547
H           8.70574         2.77802         0.68310
H           7.16986        -2.73658         3.70324
H           7.18446        -1.10085         4.37858
H           9.46999        -1.02935         1.62072
H          10.95615        -1.35903         2.55426
H           9.48444        -1.82367         5.73017
H           9.66377        -4.45968         4.15959
H           8.34833        -3.98720         5.25105
H           9.96006        -4.29438         5.89595
H          11.69802        -2.87713         3.88258
H          11.82711        -2.73820         5.63185
H          11.66540        -1.27455         4.65637

