%chk=CdCCCCCCCC1CCqdCrC1.chk
%NProcShared=20
# opt freq b3lyp/6-31g(2df,p)

Title Card Required 

0  1
C           0.91544         0.04544         0.04924
C           2.25558         0.06281         0.06337
C           3.03013         1.05672         0.87082
C           4.53066         0.85267         0.70573
C           5.29358         1.87358         1.53639
C           6.78803         1.66886         1.37128
C           7.55268         2.69168         2.19750
C           9.03876         2.47969         1.99645
C           9.85860         3.49121         2.79786
C           9.82953         5.00500         2.41704
C          10.98862         4.63037         1.51939
C          11.45312         5.14981         0.38245
C          11.34463         3.41185         2.35512
H           0.37675        -0.68409        -0.54351
H           0.34096         0.75962         0.62934
H           2.80241        -0.66638        -0.52917
H           2.76689         0.95481         1.93079
H           2.76724         2.07335         0.55362
H           4.81162         0.95265        -0.35065
H           4.81127        -0.16107         1.01916
H           5.02208         1.77586         2.59441
H           5.02271         2.88917         1.22270
H           7.06138         1.76512         0.31253
H           7.06482         0.65398         1.68336
H           7.29609         2.59387         3.25877
H           7.26736         3.70372         1.88906
H           9.27322         2.54266         0.92600
H           9.31051         1.46634         2.31945
H           9.69496         3.33464         3.87294
H          10.07621         5.68608         3.23975
H           8.91561         5.36038         1.93345
H          11.00740         6.05165        -0.02302
H          12.25669         4.66794        -0.16155
H          12.06357         3.56906         3.16423
H          11.61645         2.49693         1.81732

