%chk=CdCCCC[SH]1CCCCCC1CC.chk
%NProcShared=20
# opt freq b3lyp/6-31g(2df,p)

Title Card Required 

0  1
C           0.98532         0.10788        -0.01030
C           2.30762         0.13271         0.03582
C           3.08137        -0.36620         1.22279
C           4.55996        -0.01028         1.11143
C           5.35069        -0.71871         2.22552
S           7.10875        -0.73987         1.95650
C           7.52053         0.66382         0.96754
C           8.99472         0.96516         1.11947
C           9.87962         0.31960         0.05578
C           9.62729        -1.14589        -0.29922
C           9.20857        -2.06247         0.86145
C           7.67605        -2.19008         1.05303
C           6.97065        -2.43810        -0.29279
C           5.51058        -2.78548        -0.18367
H           0.44575         0.48078        -0.87942
H           0.39925        -0.29251         0.81693
H           2.86858         0.51522        -0.82125
H           2.95392        -1.45566         1.28400
H           2.68968         0.07123         2.14673
H           4.70712         1.07172         1.15949
H           4.91076        -0.25368         0.09787
H           5.05799        -1.76474         2.38577
H           5.17394        -0.21671         3.17987
H           7.75365        -0.67595         3.13797
H           6.92109         1.49187         1.35244
H           7.22475         0.47090        -0.06553
H           9.34862         0.66239         2.11258
H           9.12987         2.05041         1.06609
H          10.92184         0.42338         0.37653
H           9.78524         0.90429        -0.86865
H          10.53661        -1.55318        -0.75790
H           8.90746        -1.16583        -1.11927
H           9.69609        -1.73658         1.79004
H           9.59980        -3.06782         0.65962
H           7.48397        -3.03016         1.73257
H           7.47951        -3.23662        -0.84577
H           7.01253        -1.53754        -0.91158
H           5.28956        -3.72360         0.31827
H           4.98333        -2.66414        -1.13279
H           5.05755        -2.06998         0.44877

