%chk=CdCdC1CdCCdCqCSCCrNdNCdNCdC1.chk
%NProcShared=20
# opt freq b3lyp/6-31g(2df,p)

Title Card Required 

0  1
C           1.76864         0.16928         0.00008
C           3.58142         0.34869         0.08807
C           5.47387         0.64320         0.22662
C           4.42667         1.52884         0.64535
C           5.62111         1.77977         0.76415
C           6.37531         2.76596         1.23129
C           7.80494         2.88849         1.28928
C           9.15231         1.09115         0.43797
S           8.21248        -0.33547        -0.23763
C           8.62253        -1.63761        -0.85432
C           7.46330        -2.43143        -1.23029
N           7.84856         4.24918         1.93386
N           8.65440         3.66684         1.65785
C           9.68298         4.47395         2.04026
N          10.84762         3.66317         1.65946
C           9.54669         2.42443         1.07017
C           7.63702         1.43164         0.59989
H           0.61697        -0.76558        -0.18149
H           0.59282         0.97274         0.12160
H           3.85373         2.26975         0.99628
H           6.42850         1.39461         0.58122
H           5.89959         3.51033         1.58389
H           9.43310         0.73238         1.41923
H           9.43310         1.62298        -0.46110
H           9.09820        -1.85358         0.04893
H           9.09820        -1.07560        -1.59367
H           6.83043        -2.75218        -0.40281
H           7.98405        -3.28171        -1.63300
H           6.83043        -1.99444        -2.00271
H          10.06084         5.51438         2.53305
H          10.70249         3.53161         1.59046
H           6.70171         0.25795         0.04355

