%chk=CdCqNrOC1OCqOCrCCC1CC.chk
%NProcShared=20
# opt freq b3lyp/6-31g(2df,p)

Title Card Required 

0  1
C           0.83587         0.02625         0.00499
C           2.15067        -0.19837        -0.16685
N           2.52339        -1.51584        -0.02350
O           2.97080         0.90063        -0.40051
C           4.42762         0.99768        -0.36301
O           4.89990         2.17689         0.34143
C           6.34714         2.29484         0.37580
O           6.86849         2.48380        -0.94415
C           8.28623         2.61712        -0.97952
C           7.00743         1.08262         1.05300
C           6.59736        -0.14893         0.28297
C           5.08449        -0.21595         0.28059
C           4.55102        -0.39135         1.74130
C           4.91641        -1.74669         2.30791
H           0.18623        -0.80077         0.27235
H           0.40214         1.00066        -0.13095
H           2.04347        -1.95097         0.76323
H           3.49254        -1.72795         0.09334
H           4.73340         1.12161        -1.41005
H           6.57176         3.18914         0.96864
H           8.59445         2.80220        -2.00942
H           8.78578         1.69113        -0.67838
H           8.61259         3.44241        -0.34087
H           6.70557         1.01571         2.10006
H           8.09663         1.12464         1.09128
H           7.01723        -1.06086         0.71455
H           6.96372        -0.11641        -0.75217
H           4.89981        -1.04662        -0.40012
H           3.47096        -0.26211         1.83535
H           4.90096         0.40361         2.40529
H           4.60201        -2.55335         1.63952
H           4.42195        -1.89207         3.27020
H           5.99362        -1.82795         2.45766

