%chk=CNNCqdOrCdCCdCCqCrNC.chk
%NProcShared=20
# opt freq b3lyp/6-31g(2df,p)

Title Card Required 

0  1
C           1.01676        -0.02093         0.09125
N           2.47234         0.00150         0.12828
N           3.00813         1.14207         0.78615
C           4.39115         1.27805         0.88670
O           5.19870         0.50198         0.37737
C           4.84205         2.48696         1.64840
C           6.15655         2.74475         1.79894
C           6.68640         3.90162         2.50148
C           7.99935         4.16122         2.67615
C           8.52791         5.35857         3.45427
C           7.99571         5.32012         4.89321
N          10.00234         5.38124         3.44703
C          10.54835         6.55154         4.13599
H           0.66914        -0.90894        -0.45017
H           0.60839         0.85950        -0.41411
H           0.60295        -0.07818         1.10318
H           2.85633        -0.03028        -0.82227
H           2.37923         1.78992         1.25006
H           4.08470         3.14239         2.05836
H           6.88847         2.05521         1.37799
H           5.95734         4.59120         2.92208
H           8.74076         3.47679         2.26678
H           8.17146         6.26709         2.95111
H           8.36603         4.43527         5.42404
H           6.90267         5.30134         4.91771
H           8.28604         6.20623         5.46503
H          10.32599         5.40721         2.47979
H          10.30364         6.55770         5.20219
H          10.19259         7.48298         3.68333
H          11.64126         6.54281         4.08328

