%chk=CNqCCOrCqOrCqCrqOrCO.chk
%NProcShared=20
# opt freq b3lyp/6-31g(2df,p)

Title Card Required 

0  1
C           0.90263        -0.11867         0.01845
N           2.37077        -0.07878        -0.06800
C           2.77991         1.02147        -0.96838
C           2.30280         0.93481        -2.42616
O           2.86474         2.00937        -3.18089
C           2.96167         0.08737         1.28710
O           2.47094        -0.96433         2.11825
C           4.54449         0.05264         1.36582
C           5.08188        -1.23468         0.71157
O           5.11727         1.20744         0.72480
C           4.99775         0.14223         2.84726
O           6.42421         0.16552         2.98878
H           0.45816        -0.30439        -0.96452
H           0.48798         0.81390         0.41683
H           0.55673        -0.95000         0.64121
H           3.86146         1.02626        -1.07983
H           2.50883         1.99864        -0.54617
H           1.21707         0.99528        -2.52113
H           2.64807        -0.00058        -2.87835
H           2.58773         2.84101        -2.75804
H           2.61282         1.03353         1.72165
H           2.56012        -1.76745         1.57735
H           4.71477        -1.33966        -0.31541
H           4.77895        -2.12639         1.27043
H           6.17274        -1.22695         0.63227
H           5.54675         0.92258        -0.10079
H           4.62093        -0.69071         3.44769
H           4.63635         1.07740         3.28906
H           6.79365        -0.59155         2.50897

