%chk=COCCOCCCCCqCCqCOrOOrOCO.chk
%NProcShared=20
# opt freq b3lyp/6-31g(2df,p)

Title Card Required 

0  1
C           0.99636         0.03919         0.10725
O           2.41693         0.03652         0.10623
C           2.90152        -0.46888        -1.13076
C           4.41590        -0.46225        -1.14763
O           4.79027        -0.94283        -2.43784
C           6.19867        -0.96911        -2.60802
C           6.49497        -1.46009        -4.06244
C           7.97284        -1.37738        -4.43217
C           8.79442        -2.08887        -5.48014
C          10.33264        -2.11872        -5.07404
C          10.78816        -2.98063        -3.81784
C          10.55308        -2.51056        -2.34749
C           9.11949        -2.41746        -1.87018
O           8.76827        -1.02857        -1.92149
O          11.21758        -3.36304        -1.40069
O          11.00807        -2.70738        -0.09685
O          10.93960        -2.66492        -6.26647
C          12.34888        -2.59806        -6.32490
O          12.75279        -3.05915        -7.59682
H           0.65298         0.43475         1.06482
H           0.61744        -0.98043        -0.01362
H           0.61878         0.67777        -0.69759
H           2.53203         0.14354        -1.96288
H           2.54180        -1.49341        -1.28971
H           4.81147        -1.10181        -0.34706
H           4.79678         0.55354        -0.98492
H           6.58570        -1.65738        -1.84404
H           6.60708         0.03371        -2.41899
H           5.88854        -0.88463        -4.75857
H           6.16762        -2.50565        -4.09861
H           8.29061        -2.05611        -3.70506
H           8.36847        -0.37307        -4.26411
H           8.66639        -1.59792        -6.45072
H           8.46340        -3.12762        -5.59912
H          10.68775        -1.08577        -4.94633
H          11.88463        -3.03868        -3.85504
H          10.48406        -4.02306        -3.96669
H          11.04168        -1.53190        -2.28043
H           8.88121        -2.69611        -0.84753
H           8.48842        -3.14747        -2.41307
H           9.37259        -0.55170        -2.51582
H          10.81608        -3.52992         0.41878
H          12.80774        -3.25604        -5.58567
H          12.70232        -1.57185        -6.18864
H          12.42363        -3.97357        -7.63119

