%chk=COCCqCNrCC1CdCCCqCrCqCrCC1.chk
%NProcShared=20
# opt freq b3lyp/6-31g(2df,p)

Title Card Required 

0  1
C           0.93880        -0.02545        -0.05047
O           2.34748         0.01173         0.02100
C           2.83771         1.33981         0.17226
C           4.35253         1.32366        -0.00100
C           4.88267         0.89381        -1.37580
N           4.52265        -0.47647        -1.70593
C           4.96031         2.67493         0.44284
C           6.50901         2.63929         0.62496
C           7.04774         3.87617         1.35849
C           7.75745         3.98039         2.49631
C           8.20739         2.88930         3.45514
C           7.05458         2.33162         4.33015
C           7.50589         1.12642         5.16024
C           5.84368         1.94977         3.47013
C           4.55532         1.62947         4.22809
C           6.22443         0.83115         2.48401
C           6.96778         1.28668         1.21040
H           0.63872        -1.04163        -0.31567
H           0.57837         0.66120        -0.82110
H           0.51829         0.23298         0.92384
H           2.58093         1.66080         1.19081
H           2.38321         2.02535        -0.54672
H           4.65060         0.51645         0.65372
H           5.97621         0.93566        -1.38841
H           4.53015         1.58511        -2.14177
H           4.77582        -1.09760        -0.93535
H           5.01105        -0.79538        -2.53449
H           4.46362         2.99235         1.36634
H           4.69207         3.45471        -0.28023
H           6.94350         2.71459        -0.38155
H           6.77031         4.81900         0.87472
H           8.00471         4.98781         2.84186
H           8.98673         3.29733         4.10874
H           8.73301         2.09252         2.92506
H           6.74629         3.12868         5.01825
H           7.87078         0.30167         4.54106
H           6.67213         0.73798         5.75385
H           8.31966         1.38949         5.83398
H           5.54282         2.86149         2.96255
H           4.63403         0.72610         4.83074
H           3.73020         1.48981         3.51587
H           4.27307         2.47337         4.86749
H           5.31978         0.26639         2.26655
H           6.83526         0.04698         2.93116
H           6.86231         0.48841         0.46742
H           8.05190         1.29578         1.34340

