%chk=CtCC1CCOCCC1ONCCNCCCCCC.chk
%NProcShared=20
# opt freq b3lyp/6-31g(2df,p)

Title Card Required 

0  1
C           0.92073        -0.04901        -0.03624
C           2.22458        -0.04901        -0.03624
C           3.74458        -0.04901        -0.03624
C           4.28412        -1.38300        -0.54414
C           5.80591        -1.42659        -0.55347
O           6.28180        -0.66091        -1.65146
C           6.67814         0.67175        -1.35599
C           5.69527         1.49067        -0.52710
C           4.23082         1.18916        -0.85481
O           3.45743         2.37310        -0.49246
N           2.35138         2.54338        -1.44979
C           1.38775         3.48015        -0.85292
C          -0.06014         3.05280        -1.20311
N          -1.01123         4.12727        -0.93689
C          -2.36700         3.73304        -1.30982
C          -3.27823         4.92614        -1.05615
C          -4.71446         4.61102        -1.45107
C          -5.60568         5.82203        -1.20160
C          -7.04733         5.52644        -1.59604
C          -7.93268         6.73374        -1.34673
H          -0.14459        -0.08919        -0.01712
H           4.03603         0.08160         1.01516
H           3.90629        -1.56537        -1.55940
H           3.90169        -2.19305         0.08883
H           6.12349        -2.46043        -0.72538
H           6.24559        -1.10532         0.39785
H           6.81507         1.16703        -2.32401
H           7.66119         0.65359        -0.87257
H           5.91858         2.55663        -0.65680
H           5.87655         1.29621         0.53860
H           4.12236         1.01466        -1.93484
H           1.89696         1.63045        -1.40484
H           1.59263         4.46835        -1.27655
H           1.48246         3.54574         0.23830
H          -0.34172         2.18736        -0.59487
H          -0.12117         2.74834        -2.25588
H          -0.73838         4.94684        -1.48004
H          -2.70204         2.87604        -0.71215
H          -2.41421         3.44809        -2.36829
H          -2.92462         5.79263        -1.63012
H          -3.23905         5.20411         0.00507
H          -5.07889         3.75280        -0.87383
H          -4.75432         4.33181        -2.51099
H          -5.23195         6.67879        -1.77620
H          -5.55961         6.10082        -0.14153
H          -7.42315         4.67247        -1.02073
H          -7.09455         5.25151        -2.65615
H          -7.92128         7.01253        -0.28817
H          -8.96470         6.51199        -1.63230
H          -7.59150         7.59390        -1.93169

