%chk=NtCCSc1cccccccccnccc1.chk
%NProcShared=20
# opt freq b3lyp/6-31g(2df,p)

Title Card Required 

0  1
N           1.04157        -0.05136        -0.07506
C           2.30254        -0.05136        -0.07506
C           3.82254        -0.05136        -0.07506
S           6.49931        -1.46723         0.72446
C           9.32069        -2.29004         1.18909
C           7.28187        -2.65094         1.39288
C           8.65608        -2.89038         1.52809
C           9.19217        -4.00049         2.15495
C          10.47869        -4.19746         2.26617
C          11.15617        -5.01545         2.72808
C          12.31232        -4.99415         2.71605
C          12.83226        -5.92671         3.24265
C          13.83935        -6.47430         3.55187
C          15.25911        -6.91778         3.80230
N          16.73708        -6.61530         3.63149
C          15.34548        -5.80289         3.17274
C          13.84886        -4.36859         2.36281
C          11.55103        -2.99167         1.58529
H           4.19002         0.82176         0.44541
H           4.19002        -0.04612        -1.09152
H           6.47171        -3.44489         1.84121
H          10.28358        -2.89779         1.53227
H           8.51994        -4.57827         2.48121
H          12.08299        -3.94285         2.12240
H          10.69908        -5.67727         3.10180
H          13.07377        -3.57738         1.91603
H          12.78688        -6.74193         3.70299
H          13.63599        -5.63154         3.07598
H          15.04941        -7.84687         4.32694
H          16.38072        -7.33677         4.03889
H          15.52309        -5.00145         2.72018
H          10.54140        -1.83673         0.93311

