%chk=Odc1ccsccnc2scc-2cc1.chk
%NProcShared=20
# opt freq b3lyp/6-31g(2df,p)

Title Card Required 

0  1
O           2.15668         0.12400         0.23052
C           3.73187         0.27686         0.64238
C           2.84981         0.61170         1.54460
C           4.04300         0.71363         1.81925
S           4.81915         1.25795         3.28591
C           7.25018         0.87220         2.24652
C           8.29850         1.22722         3.20312
N           9.54466         1.29815         3.39422
C           9.91613         1.69334         4.45906
S          11.53698         1.77429         4.67717
C          10.27155         2.21324         5.85990
C           8.59070         1.89244         4.99554
C           6.61193         1.38070         3.61666
C           5.65434         0.70431         1.79415
H           2.27737         0.86199         2.21901
H           5.34901         0.26513         0.61077
H           7.71230         0.54971         1.37758
H           7.50357         1.68133         4.42669
H          11.82658         2.39070         6.33807
H           6.33300         1.89105         4.99179
H           4.34344         0.23499         0.52958

