%chk=OOC1CCCCCCCC12NCCCNON2.chk
%NProcShared=20
# opt freq b3lyp/6-31g(2df,p)

Title Card Required 

0  1
O           0.85199        -0.38327         0.17702
O           2.32015        -0.51385         0.09670
C           2.72637        -0.83908        -1.28097
C           1.84522         0.03969        -2.20849
C           2.24590         1.57576        -2.36827
C           2.17121         2.45125        -1.15103
C           3.51115         3.13716        -0.74408
C           4.73435         2.30832        -0.28116
C           4.43438         1.09946         0.59358
C           4.95866        -0.31985        -0.01884
C           4.47720        -0.75952        -1.57333
N           4.70290         0.37857        -2.38355
C           4.08910         0.13291        -3.64472
C           4.73378         1.00764        -4.61797
C           4.62467         0.03663        -5.72450
N           5.85030        -0.71540        -5.58198
O           6.26554        -0.91296        -3.94861
N           5.31110        -1.74358        -2.74175
H           0.82267         0.39089         0.77865
H           2.46207        -1.89833        -1.35233
H           0.78434         0.04819        -1.95820
H           1.80171        -0.54789        -3.13874
H           1.71533         1.97045        -3.24616
H           3.25420         1.82041        -2.67375
H           1.75916         1.90275        -0.31708
H           1.45206         3.23333        -1.41027
H           3.25839         3.82011         0.07174
H           3.86133         3.76319        -1.57793
H           5.43114         2.97092         0.24917
H           5.34299         2.01796        -1.12910
H           3.37636         1.13141         0.87695
H           4.89187         1.26659         1.58479
H           4.56787        -1.06637         0.69815
H           6.04413        -0.33174         0.11202
H           5.74740         0.34528        -2.49505
H           3.05001         0.39453        -3.90988
H           3.94172        -0.93306        -3.91318
H           5.78701         1.25967        -4.32677
H           4.26056         1.98200        -4.67937
H           3.84021         0.50112        -6.42447
H           4.03353        -0.89863        -5.75735
H           6.55806         0.02123        -5.89357
H           6.16262        -2.11554        -2.25983

