%chk=[C]tC[C]CdCCCCdCCCdC.chk
%NProcShared=20
# opt freq b3lyp/6-31g(2df,p)

Title Card Required 

0  2
C           1.04997        -0.10716         0.15647
C           2.24364        -0.05685         0.08013
C           3.67840         0.20837        -0.32226
C           4.42712         0.86170        -1.31351
C           5.74738         0.95428        -1.45397
C           6.26137         1.73228        -2.63437
C           7.78095         1.75798        -2.67336
C           8.28635         2.53409        -3.85089
C           9.59804         2.68696        -4.08284
C          10.12622         3.45868        -5.25370
C          11.62598         3.48262        -5.29002
C          12.31163         4.11545        -6.25017
H           3.78658         1.34411        -2.04542
H           6.44464         0.49620        -0.75897
H           5.87507         2.76061        -2.58741
H           5.87506         1.28366        -3.56088
H           8.15633         0.72899        -2.72629
H           8.15633         2.21234        -1.74861
H           7.56477         2.98268        -4.53151
H          10.30598         2.23255        -3.39339
H           9.75319         4.48869        -5.19737
H           9.75318         3.00078        -6.17806
H          12.17995         2.96751        -4.50849
H          11.80197         4.64290        -7.05042
H          13.39643         4.11579        -6.25068

