%chk=[CH]CdNCOC1CdCqNCNCCdNrCq[C]CCdNrC1.chk
%NProcShared=20
# opt freq b3lyp/6-31g(2df,p)

Title Card Required 

0  1
C           1.15822         0.03409         0.19453
C           2.56452         0.06020        -0.00026
N           2.95219         0.17396        -1.22547
C           4.42395         0.16217        -1.22606
O           5.04769         0.19807        -2.50694
C           6.47272         0.19507        -2.48956
C           7.06774         1.40666        -1.84024
C           7.98375         1.10207        -0.91140
N           8.57345         1.98340        -0.03836
C           9.53401         1.68468         0.99133
N          10.04376         2.81904         1.74711
C          11.00298         2.37048         2.75847
C          11.54118         3.56940         3.50882
N          12.39742         3.47512         4.47514
C           8.13530        -0.38392        -0.79573
C           9.39205        -1.02291        -1.14299
C           9.88190        -2.38690        -1.19189
C          11.23023        -2.66712        -1.74156
N          11.67192        -3.88351        -1.78411
C           7.06631        -0.97861        -1.72044
H           0.18485        -0.00293         0.61920
H           3.20185        -0.01913         0.88883
H           4.72233        -0.75573        -0.71159
H           4.78731         1.01381        -0.63907
H           6.81147         0.15886        -3.53263
H           6.73115         2.40492        -2.08061
H           8.41423         2.97123        -0.20556
H          10.37859         1.16203         0.52894
H           9.06559         0.98378         1.69544
H           9.24940         3.26488         2.20154
H          11.85365         1.85753         2.29621
H          10.53099         1.69770         3.48329
H          11.18057         4.57054         3.22025
H          12.66617         2.50011         4.64448
H           7.91678        -0.68025         0.23743
H           9.17047        -2.98025        -1.78007
H           9.83454        -2.77449        -0.16987
H          11.84746        -1.83851        -2.11686
H          10.96810        -4.53471        -1.40689
H           6.36959        -1.55854        -1.11388
H           7.44970        -1.71306        -2.44077

