%chk=[CH]C1[SH]dC2CqdOrOC21.chk
%NProcShared=20
# opt freq b3lyp/6-31g(2df,p)

Title Card Required 

0  1
C           1.01052         0.21638        -0.17598
C           2.45511         0.20966        -0.24257
S           3.13082         1.73307         0.47845
C           3.05811         0.58076         1.79648
C           4.06187        -0.22411         2.48735
O           4.77758         0.05312         3.41111
O           3.65652        -1.34908         1.91631
C           3.36514        -0.72845         0.62120
H          -0.03317         0.41637        -0.25063
H           2.76291         0.10782        -1.29255
H           2.01735         2.38435         0.74761
H           2.78312        -1.60473         0.30030

