%chk=[CH]CCCCN1CdCCdCCdC1O.chk
%NProcShared=20
# opt freq b3lyp/6-31g(2df,p)

Title Card Required 

0  1
C           1.03239         0.05777         0.29979
C           2.46984         0.02258         0.05003
C           2.89208        -0.18513        -1.39691
C           4.42092        -0.20890        -1.44286
C           4.92633        -0.43790        -2.86222
N           6.40888        -0.39421        -2.87842
C           7.08345        -1.59977        -2.69888
C           8.38301        -1.91491        -2.64297
C           9.50095        -1.02327        -2.75526
C           9.47019         0.30378        -2.92623
C           8.32412         1.16597        -3.03480
C           7.01153         0.85922        -3.00882
O           6.11195         1.91676        -3.12037
H           0.09174         0.12654         0.79189
H           2.88983        -0.78298         0.66068
H           2.89183         0.96523         0.41302
H           2.51575         0.62101        -2.03982
H           2.49696        -1.12674        -1.79763
H           4.80435        -0.99663        -0.78075
H           4.81149         0.73784        -1.04552
H           4.50284         0.31141        -3.54192
H           4.56241        -1.40041        -3.24242
H           6.39141        -2.43328        -2.58426
H           8.64596        -2.96177        -2.50054
H          10.47463        -1.50355        -2.68786
H          10.42505         0.82159        -2.98758
H           8.60324         2.20931        -3.15220
H           6.60165         2.74394        -3.23354

