%chk=[CH][C]C1dCCdCCdCCdC1CNN.chk
%NProcShared=20
# opt freq b3lyp/6-31g(2df,p)

Title Card Required 

0  1
C           1.09855        -0.58442         0.44890
C           2.22472         0.26835        -0.12088
C           2.97326         1.28585        -0.78694
C           2.32227         2.42235        -0.51462
C           2.31023         3.78428        -0.86160
C           3.04896         4.53148        -1.67373
C           4.11346         4.22757        -2.56331
C           4.73749         3.11300        -2.94779
C           4.71470         1.72295        -2.58403
C           4.07344         0.92999        -1.69360
C           4.61016        -0.53967        -1.71744
N           3.97198        -1.50405        -0.81637
N           4.54619        -2.80087        -0.83261
H           0.24940        -1.12362         0.78152
H           1.48510         2.29663         0.18721
H           1.49431         4.30137        -0.35171
H           2.76280         5.58203        -1.68092
H           4.46173         5.13970        -3.05178
H           5.48488         3.29433        -3.72771
H           5.45638         1.20783        -3.21060
H           5.68637        -0.51069        -1.48590
H           4.51097        -0.92240        -2.74372
H           2.98341        -1.55781        -1.07635
H           5.52461        -2.79365        -0.54870
H           4.45507        -3.26161        -1.73600

