%chk=[S][C]CdC1COCqdSrC1.chk
%NProcShared=20
# opt freq b3lyp/6-31g(2df,p)

Title Card Required 

0  2
S           1.04905         0.01286        -0.59560
C           2.51499         0.10172         0.36605
C           3.31476         0.22818         1.51439
C           4.65187         0.27393         1.63797
C           5.73893         0.12430         0.64492
O           6.80605        -0.49264         1.38857
C           6.60588        -0.21801         2.70092
S           7.82115        -0.48500         3.79496
C           5.27367         0.38290         2.98683
H           2.71167         0.31296         2.40907
H           6.11943         1.09918         0.31893
H           5.49328        -0.48663        -0.22583
H           5.38771         1.43048         3.28038
H           4.73422        -0.18599         3.74990

