%chk=[S]C1dCCdCCdCCdCCdCCdCCdCC1.chk
%NProcShared=20
# opt freq b3lyp/6-31g(2df,p)

Title Card Required 

0  2
S           3.82758        -0.46435         0.03813
C           6.17649        -1.45687         0.34716
C           4.25627        -1.27277         0.68111
C           5.45413        -0.96666         1.17062
C           5.78216        -2.09909         2.01416
C           7.18105        -1.85249         1.86779
C           7.82108        -2.84257         2.43791
C           9.18606        -2.75549         2.46830
C           9.69992        -3.68504         3.15783
C          11.05076        -3.52226         3.62315
C          11.81404        -4.50975         4.16464
C          13.30517        -3.48734         3.78649
C          13.74137        -4.80677         4.09513
C          12.66366        -3.82469         2.51789
C          10.90703        -3.02405         1.64601
C           8.52831        -2.01642         0.87135
H           3.05639        -1.72831         1.38690
H           5.79426         0.11872         0.10852
H           5.00523        -2.68823         2.15455
H           8.23293        -0.76348         0.87183
H           7.32328        -3.53141         2.90870
H           9.91076        -1.90120         1.70495
H           9.46649        -4.44983         3.67585
H          11.98744        -2.52996         2.74675
H          11.68230        -5.46601         4.53631
H          14.53392        -3.28825         2.84970
H          13.88751        -6.01213         5.03631
H          14.29304        -4.38337         3.28787
H          11.98694        -4.08632         2.37635
H           7.35968        -1.30005         0.00529
H           7.22513        -0.67169         0.89652

