%chk=c1ccc2cccnccnccncc-2nc1.chk
%NProcShared=20
# opt freq b3lyp/6-31g(2df,p)

Title Card Required 

0  1
C          -1.22482         0.69607         0.00478
C          -1.51336        -0.66587         0.00522
C          -0.56693        -1.59790         0.03225
C           0.86882        -1.65280         0.00890
C           1.46949        -2.78743        -0.23640
C           0.88804        -3.99798        -0.16598
C           1.49756        -5.13288        -0.40292
N           0.82970        -6.20970        -0.12959
C           1.69681        -7.01413        -0.59106
C           1.15715        -8.31512        -0.30055
N           2.16561        -8.96885        -0.57607
C           2.24399        -9.88028         0.30020
C           3.09409        -8.30952         0.68017
N           3.14212        -6.27685         0.84856
C           2.89489        -4.31950         0.87843
C           2.24340        -2.17095         0.56843
N           1.59465        -0.45405         0.29563
C           0.21297         0.85637         0.04165
H          -2.22473         1.32704        -0.01427
H          -2.52581        -1.01084         0.00616
H          -0.90132        -2.56363         0.00364
H           2.44971        -3.27830        -0.56417
H          -0.09562        -3.95708         0.03692
H           2.82466        -5.35109        -0.61309
H           3.17178        -6.92971        -0.83217
H           0.28268        -8.81792         0.02874
H           1.06967       -10.81718         0.02294
H           3.53987        -9.83098         0.26948
H           3.88472        -3.43734         0.20354
H          -0.12968         2.30374         0.01447

