%chk=C1dCCdC2CdCCdCNdCC2CSSOCdC1.chk
%NProcShared=20
# opt freq b3lyp/6-31g(2df,p)

Title Card Required 

0  1
C           1.53011         0.33220        -0.96919
C           2.63654         0.06888        -0.19870
C           3.44580        -0.38354         1.18338
C           4.89688        -0.58873         1.56337
C           5.07677        -0.86910         2.95063
C           6.29638        -0.55076         3.37219
C           7.17646        -0.71985         4.44031
C           8.44786        -0.56518         3.97012
N           8.60079        -1.77138         3.33879
C           8.18937        -1.64000         1.95865
C           6.59789        -0.61526         0.89679
C           5.54889        -0.05716        -0.41881
S           6.07953         0.69023        -2.22418
S           4.29266         1.03118        -2.99504
O           3.75096         1.45415        -4.44177
C           2.27096         1.34606        -4.06997
C           1.52110         0.91049        -2.72248
H           0.60303         0.14270        -0.32839
H           3.28924         0.35311        -0.94619
H           2.73057        -0.59026         2.02101
H           4.36177        -1.22939         3.63827
H           6.90622         0.01369         2.70121
H           6.86241        -1.56703         5.07040
H           8.97720         0.11695         3.14959
H           9.43816        -1.46920         2.19135
H           7.27615        -0.05962         0.23886
H           4.87618         0.89751        -0.12548
H           4.76214        -0.81449        -0.73613
H           2.19802         1.73028        -5.22980
H           0.41923         0.90850        -2.68349

