%chk=C1dCc2ccccc2CdCSC2dCC2dN1.chk
%NProcShared=20
# opt freq b3lyp/6-31g(2df,p)

Title Card Required 

0  1
C           1.30380         0.93162        -0.30181
C           2.37077         0.08172        -0.39323
C           2.99571        -0.78336         0.72926
C           2.59466        -2.10568         1.03511
C           3.29574        -2.88431         1.99727
C           4.44902        -2.40520         2.61250
C           4.89296        -1.13261         2.30225
C           4.16481        -0.29346         1.43794
C           4.77388         1.06174         1.34667
C           4.04062         2.05301         0.87414
S           4.37461         3.63475         0.39663
C           2.98358         3.75492        -0.44289
C           2.18283         4.49115        -1.17201
C           1.79520         3.10929        -0.91040
N           1.03908         2.12391        -1.01158
H           0.52760         0.72755         0.43227
H           3.11533         0.26228        -1.17119
H           1.76290        -2.59149         0.52699
H           2.96820        -3.89236         2.25503
H           5.01386        -3.00506         3.32465
H           5.82567        -0.78240         2.74177
H           5.77833         1.24065         1.70546
H           3.02217         1.81139         0.74534
H           2.26096         5.49417        -1.47765

