%chk=C1dCC2dc3cncqscccc3CdC2rdN1.chk
%NProcShared=20
# opt freq b3lyp/6-31g(2df,p)

Title Card Required 

0  1
C           1.94047         0.31086         0.20195
C           3.16733         0.06384         0.01450
C           4.03570         1.59628         1.23163
C           5.59029         0.67173         0.48947
C           4.87925         2.27100         1.72319
N           5.82217         2.89500         2.20764
C           5.36796         1.86530         1.37804
S           7.03703         3.16695         2.40839
C           8.87037         4.03083         3.08251
C          10.25062         3.38171         2.57960
C           8.90767         2.22590         1.68478
C           7.30016         1.34439         1.00491
C           5.22284         0.73114         0.54012
C           3.15944         1.41227         1.04959
N           3.93955         0.49919         0.32114
H           0.66003         0.69495         0.49904
H           2.90427        -0.83544        -0.68473
H           4.25472         2.98004         2.26935
H           9.15772         4.86545         3.72833
H          11.68633         3.37662         2.57637
H          10.00240         3.23214         2.46437
H           4.92494        -0.52535        -0.44465
H           2.26183         2.29854         1.74104

