%chk=C1dCc2ccc3cqcccnc2dCS1rdC3.chk
%NProcShared=20
# opt freq b3lyp/6-31g(2df,p)

Title Card Required 

0  1
C           1.61515        -0.11952        -0.10163
C           2.90705        -0.20726        -0.13003
C           3.76949        -1.69207        -0.62138
C           4.74560        -0.91858        -0.36693
C           5.64321        -1.74109        -0.64140
C           6.83770        -1.73219        -0.63830
C           7.99859        -2.21816        -0.80001
C           8.58100        -3.35185        -1.17729
C           8.97305        -4.94064        -1.71080
C           7.93024        -4.15678        -1.49366
N           6.11865        -4.07843        -1.36796
C           4.31753        -3.43073        -1.23014
C           2.70298        -2.84858        -0.99711
S           1.13678        -1.62248        -0.60943
C           7.88493        -1.00594        -0.39705
H           0.61131        -0.51884        -0.23451
H           3.13132         0.88884         0.23427
H           5.06484        -0.01379        -0.06668
H           5.72390        -2.63838        -0.93952
H           9.54327        -2.64525        -0.94252
H           8.78740        -5.95617        -2.04485
H           9.66162        -4.11734        -1.41538
H           1.52108        -3.12317        -1.10259
H           7.78561        -0.06849        -0.08420

