%chk=C1dCdC2CdC2NdCCdCCdCNSCdCCdCCd1.chk
%NProcShared=20
# opt freq b3lyp/6-31g(2df,p)

Title Card Required 

0  1
C           1.45829        -4.81642        -0.45855
C           1.93734        -3.06769        -0.30048
C           2.69968        -1.20308        -0.13185
C           4.05452         0.43419         0.01640
C           4.37491        -0.90241        -0.10466
N           3.90479        -2.38441        -0.23889
C           4.36359        -3.60314        -0.34927
C           3.77420        -4.95776        -0.47196
C           4.26395        -6.16597        -0.58138
C           3.63101        -7.44491        -0.69721
C           4.24056        -8.59780        -0.80162
N           3.87005        -9.80502        -0.91061
S           4.58947       -11.28893        -1.04503
C           3.23630       -12.01620        -1.11153
C           2.88823       -13.19064        -1.22047
C           1.60114       -11.43529        -1.05925
C           1.28653        -9.29963        -0.85454
C           1.25138        -6.94269        -0.65617
H           4.57432         2.01922         0.15994
H           5.40804        -3.66057        -0.35447
H           2.85625        -5.13167        -0.48784
H           5.31285        -6.15176        -0.58009
H           2.64549        -7.58653        -0.71000
H           5.25403        -8.62402        -0.80401
H           2.89938        -9.59728        -0.89138
H           2.80557       -10.82280        -1.00636
H           4.33768       -14.04962        -1.29579
H           1.59270       -13.13958        -1.21142
H           1.32867       -10.97387        -1.01858
H           0.63158        -5.45075        -0.51742

