%chk=C1dCCdCCCdCNdCC2dCC2dCCdC1.chk
%NProcShared=20
# opt freq b3lyp/6-31g(2df,p)

Title Card Required 

0  1
C           3.27783         0.72014        -0.09833
C           2.58288        -0.43984         0.19081
C           3.15647        -1.63987         0.48994
C           4.45796        -1.64822         0.49202
C           5.25414        -2.72971         0.76160
C           6.63726        -2.44110         0.68966
C           7.45578        -3.40599         0.93018
N           8.69924        -3.24103         0.88906
C           9.63503        -4.02579         1.08467
C          10.63839        -3.11852         0.85852
C          11.87112        -3.19770         0.87826
C          10.53289        -1.72189         0.51038
C           9.05009        -0.72318         0.26144
C           7.12704         0.18579         0.03486
C           5.36644         0.70171        -0.09374
H           1.84241         0.35056        -0.00621
H           3.50038         0.01573         0.07725
H           2.47600        -2.39961         0.67932
H           5.11539        -0.90053         0.30565
H           4.95872        -3.36365        -0.03887
H           4.95872        -2.91376         1.76597
H           7.03914        -1.52854         0.46219
H           7.16004        -4.34934         1.16532
H           9.59512        -5.05432         1.34105
H          12.22020        -4.57400         1.22132
H           9.15157        -1.70211         0.50546
H           8.17444         0.79378        -0.11669
H           4.37245         1.66310        -0.33338

