%chk=C1dCCdCCdC2CdCCdC2CdNCdCCdC1.chk
%NProcShared=20
# opt freq b3lyp/6-31g(2df,p)

Title Card Required 

0  1
C           2.54029         0.07828        -1.35179
C           3.16900         0.00607        -0.17487
C           3.13918        -0.07990         1.28088
C           4.40889        -0.08417         1.70621
C           5.32255        -0.16433         2.78466
C           6.68151        -0.15215         2.64795
C           7.53003        -0.23705         3.81549
C           8.81244        -0.20211         3.40488
C           8.89699        -0.09779         1.96801
C           7.65355        -0.06489         1.50700
C           7.35386        -0.01860         0.09521
N           7.81612         0.08402        -1.11061
C           6.66890         0.09465        -1.89460
C           6.21631         0.19623        -3.12706
C           4.65340         0.22599        -3.31264
C           3.38843         0.18626        -2.68945
H           1.44420         0.09838        -1.32235
H           4.16424         0.02947        -0.53605
H           2.31404        -0.14640         1.98278
H           5.03114         0.05585         0.89003
H           4.83887        -0.23808         3.74978
H           7.15042        -0.31174         4.81862
H           9.68181        -0.24641         4.03164
H           9.77035        -0.06520         1.33626
H           6.31666        -0.13130         0.09408
H           5.74499         0.03022        -1.38077
H           6.97028         0.29587        -3.91996
H           4.59137         0.34531        -4.39775
H           2.57687         0.28473        -3.41831

