%chk=C1dCC2dC3CCNNC3dCCqdC1rCdC2.chk
%NProcShared=20
# opt freq b3lyp/6-31g(2df,p)

Title Card Required 

0  1
C          -1.72009         0.43895         0.77287
C          -1.41973        -0.86353         0.58535
C          -0.60629        -1.22848        -0.53119
C           0.68977        -1.49332        -0.15251
C           1.46464        -2.00224        -1.15138
C           1.42255        -2.78473        -2.35010
N           3.02912        -2.23961        -1.96000
N           3.13983        -1.00679        -0.48341
C           1.72877        -0.47606         0.14738
C           1.28708         0.78826         0.41726
C           0.16476         1.32969        -0.46084
C          -1.14575         1.46846        -0.09720
C           0.04906         0.73982        -1.83417
C          -0.57930        -0.48268        -1.83675
H          -2.37646         0.74946         1.55450
H          -1.68374        -1.65689         1.27507
H           2.13230        -2.76190        -0.45355
H           1.76138        -0.91593        -1.83108
H           0.82254        -2.23963        -3.11140
H           0.85895        -3.64334        -1.92562
H           3.18325        -1.74404        -2.85840
H           3.28778        -1.62230         0.35517
H           1.79446         1.54915         1.00576
H          -1.83972         1.66985        -0.94338
H           0.43514         1.42853        -2.57588
H          -0.91974        -1.17866        -2.59226

