%chk=C[C]1NCNdCdCNdNCdCc2csc1c2N.chk
%NProcShared=20
# opt freq b3lyp/6-31g(2df,p)

Title Card Required 

0  2
C           4.30544        -0.57653        -0.06848
C           6.62127        -0.81283         0.45187
N           4.68093        -0.33055         0.95688
C           4.95698         0.98489         1.25949
N           5.20878         1.48451         2.50808
C           6.38155         1.52423         2.58902
C           7.67772         1.60800         2.74163
N           8.60945         0.87334         2.03268
N           9.81701         1.08034         2.35112
C          10.80171         0.62113         1.59074
C          12.12521         0.54443         1.63126
C          12.58673        -0.53546         0.86681
C          12.84020        -0.64019        -0.42637
S          10.89669        -1.79635        -0.25744
C           8.81242        -1.08493         0.69055
C          10.90124        -1.44692         1.29011
N          12.67349        -1.53259         2.26410
H           2.91667         0.31285        -0.13875
H           2.77297        -0.44917         0.57714
H           2.74394        -0.75971        -0.44320
H           3.51620         0.04252         1.65357
H           5.00229         1.37945         0.25907
H           5.19513        -0.11351         1.54372
H           8.04643         2.31526         3.47267
H          10.41128         0.09668         0.75037
H          12.59672         0.97607         2.44183
H          12.49088        -0.40563        -1.35748
H          14.13880        -1.78474         2.56878
H          13.51493        -0.83687         3.17739

