%chk=CC1CdC2CdCCdC3CdCCdCCdCC321.chk
%NProcShared=20
# opt freq b3lyp/6-31g(2df,p)

Title Card Required 

0  1
C           1.42170        -0.33212         0.57800
C           2.96531        -0.79374         1.43741
C           2.93464         0.50637         2.25630
C           4.28728         0.49305         2.11804
C           5.22095         0.43474         0.71280
C           6.48752        -0.01667         0.84073
C           6.89958        -0.34823         2.14758
C           6.01972        -0.64292         3.14490
C           6.66219        -0.42366         4.45722
C           6.05194         0.22233         5.49862
C           6.19020        -0.20070         6.87059
C           5.03316        -0.86824         7.08217
C           4.38519        -1.67695         5.93598
C           3.99506        -1.68466         4.54875
C           4.33583        -0.90611         2.95270
H           1.52420        -0.12902        -0.52566
H           1.00081         0.63855         0.92154
H           0.65554        -1.10564         0.66181
H           3.34654        -0.67291         0.38037
H           2.13742         0.38823         3.01089
H           4.82224         0.48536        -0.30101
H           7.19620        -0.08558         0.02222
H           7.94667        -0.15920         2.37109
H           7.66881        -0.76945         4.61698
H           5.04282         0.59431         5.33929
H           7.13276        -0.71664         7.13832
H           4.33007        -0.47894         7.83627
H           4.51245        -2.62568         6.53243
H           3.80090        -2.71300         4.23635

