%chk=CC1CCqdOrCdCCd[SH]Cd[SH]1.chk
%NProcShared=20
# opt freq b3lyp/6-31g(2df,p)

Title Card Required 

0  1
C           1.76631         0.12789         0.46967
C           3.38370        -0.22073         0.54150
C           3.26391        -1.68810         0.55831
C           4.58677        -1.97270        -0.04611
O           5.11324        -1.28918        -0.86879
C           5.24329        -3.09663         0.62513
C           6.53675        -3.03248         0.35042
C           7.41525        -3.56358         1.36105
S           8.47215        -2.10386         1.65595
C           6.68923        -1.38928         2.50126
S           4.98993        -0.02508         2.09798
H           1.27823        -0.63573        -0.21095
H           1.46848         1.00125        -0.14441
H           1.12825         0.05410         1.35653
H           3.78997         0.27316        -0.35692
H           2.50726        -2.15920        -0.06683
H           3.04726        -1.90003         1.61012
H           4.78781        -3.54167         1.49438
H           6.91119        -2.10849        -0.12215
H           7.08400        -4.42320         1.98863
H           9.29030        -2.59883         2.59540
H           6.73959        -2.02516         3.41932
H           5.69844         0.74573         1.31622

