%chk=Cc1ccc2ncqdSrncnc2c1C.chk
%NProcShared=20
# opt freq b3lyp/6-31g(2df,p)

Title Card Required 

0  1
C           1.26854        -0.07458        -0.05234
C           2.82867        -0.18217        -0.14390
C           3.51509         1.08231        -0.11429
C           4.81258         1.15977         0.32946
C           5.65613        -0.07700         0.47904
N           6.70490        -0.22629         1.30221
C           7.45032        -1.36034         1.07838
S           7.22409        -3.01947         1.64688
N           8.29471        -1.22106         0.02494
C           7.63301        -1.81070        -0.93331
N           6.15671        -1.97082        -1.03328
C           5.23410        -1.26023        -0.37274
C           3.55715        -1.34263        -0.19782
C           2.74820        -2.58027         0.14792
H           0.88051         0.95281        -0.15580
H           0.85168        -0.44336         0.89683
H           0.78607        -0.63917        -0.86211
H           2.93184         1.97755        -0.31899
H           5.22464         2.12773         0.54921
H           8.38750        -2.52296        -1.36763
H           3.34946        -3.46512         0.32262
H           2.01460        -2.76596        -0.64642
H           2.12415        -2.44820         1.06295

