%chk=CC1C2dCNdCCdCCdCCdCCdC2N1N.chk
%NProcShared=20
# opt freq b3lyp/6-31g(2df,p)

Title Card Required 

0  1
C           0.95020        -0.05048         0.08654
C           2.39740         0.27843        -0.02831
C           2.25602         1.33994         0.97866
C           1.95220         2.25992         1.78826
N           0.96697         2.82965         1.04412
C           0.80490         4.01666         1.48133
C          -0.13324         4.56859         0.58783
C          -0.47502         5.58502         1.38360
C          -1.47847         6.41454         0.67953
C          -1.23602         7.63882         1.20421
C          -0.10734         7.18775        -0.13379
C           1.36169         6.00702         0.06400
C           2.49408         4.22339         0.26399
C           3.12484         2.31489         0.56529
N           3.46570         0.52167         0.86007
N           3.06586        -1.45671         1.30498
H           0.56336         0.73123        -0.57641
H           0.56384         0.12714         1.10143
H           0.61165        -1.01409        -0.25539
H           2.75870         0.03276        -1.02040
H           3.03580         2.77940         2.44016
H           1.69474         4.82487         2.09120
H          -0.51511         4.34130        -0.39414
H           0.46633         6.35402         1.96658
H          -1.91903         6.29949        -0.44958
H          -0.78380         8.65621         1.47511
H          -1.50184         7.89560        -0.40036
H           0.80782         7.41437         0.40068
H           3.57329         3.78149         0.95619
H           3.58171        -2.39072         1.97577
H           2.93058        -2.56157         0.57609

