%chk=CC1CCNCNqOrCdCCdCCdCS1.chk
%NProcShared=20
# opt freq b3lyp/6-31g(2df,p)

Title Card Required 

0  1
C           2.60312        -0.88551         0.19934
C           4.41763        -2.14318         0.26065
C           3.37587        -2.04513        -0.84914
C           5.01512        -1.36448        -0.82127
N           5.38631        -2.46337        -1.55869
C           6.78330        -2.34746        -1.62103
N           7.14876        -3.55531        -2.39891
O           6.18494        -4.84449        -2.25943
C           8.46462        -3.81015        -2.29737
C           8.88024        -4.89776        -2.94006
C          10.34460        -4.96978        -3.04387
C          10.56238        -6.28358        -3.00303
C          10.30073        -5.80655        -1.27037
C           8.69125        -5.12228        -0.51128
S           6.59697        -3.91936         0.08565
H           1.57081        -0.47045        -0.81225
H           1.81374         0.35219         0.40376
H           1.32058        -1.07791         0.66861
H           3.99838        -0.63959         0.07189
H           2.82623        -1.50059        -1.72291
H           2.69038        -2.50667        -0.00645
H           5.36696        -0.78592         0.50795
H           5.07230        -0.40694        -1.31813
H           4.75131        -2.71622        -2.28174
H           7.55042        -2.12240        -0.56389
H           7.05484        -1.40549        -2.01103
H           5.37738        -4.46390        -1.83988
H           9.14693        -3.27826        -1.51669
H           8.26149        -5.88822        -2.69036
H          11.12083        -4.40757        -2.19253
H          10.16496        -7.31415        -3.21281
H          11.70875        -6.04512        -1.93822
H           9.46721        -6.35543        -1.08048

