%chk=CC1dCCdc2cccccnccc2dCC1.chk
%NProcShared=20
# opt freq b3lyp/6-31g(2df,p)

Title Card Required 

0  1
C           1.12810         0.19724         0.03219
C           2.87684         0.68297        -0.33138
C           3.65671         1.58183        -1.13718
C           5.57073         1.28253        -1.13061
C           6.35260         2.56063        -1.27973
C           7.24118         1.70529        -0.54109
C           8.26601         2.29918        -0.82782
C           9.53618         2.45619        -0.88939
C           9.87495         3.60498        -1.23534
C          11.23326         3.77885        -1.06982
N          10.56873         4.24769        -2.38370
C          10.15584         5.75717        -1.92554
C           8.45758         5.51643        -2.21426
C           6.65693         4.42510        -1.59919
C           5.35462         3.50212        -0.93472
C           4.21570         1.91423         0.13678
H           0.51821         1.02333        -0.32704
H           0.67662        -0.08349         1.05326
H           0.66781        -0.71698        -0.54443
H           2.69250         2.25865        -0.96123
H           5.87320         0.33883        -0.24366
H           7.53530         0.76947        -0.20426
H           7.86139         3.08074        -1.30474
H          10.05968         1.68156        -0.60239
H           8.94703         4.04075        -1.27541
H          12.12564         3.03397        -1.20582
H          11.63450         5.69979        -2.21032
H           9.43492         6.51731        -2.38798
H           4.33031         3.69672        -1.34361
H           4.30117         0.76638         0.80031
H           4.35653         0.41386        -0.33828

