%chk=CC1dCCdC2CdCCdC2NdCCdNCqNrS1.chk
%NProcShared=20
# opt freq b3lyp/6-31g(2df,p)

Title Card Required 

0  1
C           0.69956         0.32516         0.26643
C           1.49353         1.12934         1.33468
C           2.86070         1.08397         1.38989
C           4.32908         0.75504         1.08176
C           5.27986         1.30957         1.91455
C           6.74741         1.25920         1.95805
C           7.17033         2.02554         2.99738
C           6.06523         2.59133         3.68909
C           4.96878         2.19651         3.03858
N           3.75042         2.41862         3.37449
C           3.42480         3.09138         4.41554
C           2.04719         2.79379         4.60979
N           1.26987         3.78177         4.76730
C           0.03876         3.05979         4.54969
N          -0.45728         4.31663         5.47261
S           0.35785         2.65141         2.31723
H          -0.32011         0.34437         0.63095
H           0.91625        -0.76418         0.18223
H           0.70966         0.70752        -0.76712
H           2.93509         0.99118         2.44686
H           4.72891         0.16795         0.23783
H           7.40358         0.74318         1.28418
H           8.16231         2.26507         3.33527
H           6.01918         3.21215         4.56325
H           3.95207         3.70661         5.11857
H           1.72983         1.75965         4.37650
H          -0.95452         3.31801         4.16902
H           0.42215         4.69630         5.89428
H          -0.86359         3.97038         6.35436

