%chk=CC1dC2CdCCdCCdCNdCCdCC1dC2N.chk
%NProcShared=20
# opt freq b3lyp/6-31g(2df,p)

Title Card Required 

0  1
C           2.47256        -0.62181         0.71800
C           4.49095        -1.76638         1.83274
C           3.30139        -1.39455         1.47060
C           4.79758        -0.77086         0.86316
C           6.05842        -1.42162         1.49697
C           7.24889        -1.53329         1.60573
C           7.91875        -2.29976         2.35223
C           8.98269        -1.96177         2.02305
C           9.42182        -2.70655         2.74842
N          11.07055        -3.01414         3.04800
C           9.93681        -3.92301         3.93319
C          11.20635        -3.67719         3.69378
C           9.14078        -3.67778         3.69435
C           6.40158        -2.91915         2.95548
C           4.29855        -2.61949         2.66362
N           2.34874        -2.14151         2.19810
H           1.28355         0.35520        -0.23356
H           0.96099         0.14569         1.07675
H           0.96099        -0.96018        -0.05871
H           5.18537        -0.09790         0.20773
H           5.67516        -2.15740         2.21359
H           7.47249        -0.87789         0.96741
H           7.55076        -3.26799         3.29524
H           9.77062        -1.68817         1.75657
H           8.06053        -3.84979         3.86187
H          10.91739        -5.05154         5.03232
H          13.00468        -3.60003         3.61862
H          10.96896        -4.25791         4.25936
H           0.83821        -2.35674         2.40773
H           1.04544        -1.43168         1.50677

