%chk=CC1dCCdCCdCCdCC2dCCdCCdC1S2.chk
%NProcShared=20
# opt freq b3lyp/6-31g(2df,p)

Title Card Required 

0  1
C           4.13113        -0.78728        -0.67252
C           6.79963        -1.38708        -1.21795
C           4.73268        -1.40714        -1.23619
C           5.71251        -0.75180        -0.64026
C           5.37415        -2.03466        -1.80682
C           7.39504        -2.33375        -2.07880
C           7.22478        -3.13061        -2.80342
C           8.34375        -3.04163        -2.72252
C           9.25215        -3.73480        -3.35284
C          10.43876        -4.01124        -3.60423
C          11.37095        -4.74686        -4.27316
C          12.05097        -4.06371        -3.65197
C          13.00381        -4.49573        -4.04478
C          11.46525        -3.10475        -2.77990
C           9.34702        -2.21157        -1.96769
S          11.62211        -2.42366        -2.16056
H           2.54942        -0.01495         0.02980
H           2.33394        -0.86729        -0.08616
H           2.33394        -0.21114        -0.80772
H           3.01392        -1.59963        -1.41123
H           5.41090         0.01970         0.06131
H           4.79875        -2.64717        -2.36381
H           7.93379        -1.04301        -0.90506
H           6.84010        -3.63470        -3.26182
H           8.52513        -1.67025        -1.47545
H           9.14909        -4.43115        -3.98607
H          11.30171        -5.40668        -4.87317
H          13.59962        -3.25099        -2.91290
H          13.43054        -5.82571        -5.25421
H          13.19702        -3.90854        -3.51082

