%chk=CC1dCCqNrdNNdC2CdCCdCCdCdC1CC2.chk
%NProcShared=20
# opt freq b3lyp/6-31g(2df,p)

Title Card Required 

0  1
C           2.94886         0.60019        -1.18771
C           4.84910         1.30535        -2.55755
C           3.79687         0.71073        -1.41076
C           4.98694         0.41460        -0.82815
N           5.39996        -0.12285         0.23035
N           5.99681         0.71611        -1.42443
N           7.13135         0.69014        -1.37118
C           7.59977         1.18334        -2.36047
C           8.84971         1.14338        -2.25216
C           9.27596         1.55931        -3.25299
C          10.85331         2.07183        -4.03716
C          11.10027         2.84106        -5.61287
C          10.94741         2.22560        -4.47402
C           8.97620         2.45041        -4.46968
C           6.91405         1.91406        -3.62501
C           5.25407         2.03941        -4.02267
C           6.60556         2.07288        -4.08574
H           1.88923        -0.00580         0.00033
H           1.48981        -0.22669        -1.04990
H           1.48928         0.97244        -0.44083
H           2.76414         1.21979        -2.41515
H           4.90241        -0.49416         0.96171
H           6.41323        -0.09193         0.16944
H           9.68925         0.97614        -1.92770
H           7.91332         2.00400        -4.37751
H          11.73647         1.57927        -3.11477
H          10.23370         3.08434        -6.08602
H          12.65995         2.24137        -4.39423
H           4.94136         0.92843        -4.12903
H           4.93996         2.77821        -3.19233
H           6.84924         3.38337        -4.35318
H           6.84465         1.50615        -5.29946

