%chk=CC1dCqSrCdCdCCdCCdCNdC1.chk
%NProcShared=20
# opt freq b3lyp/6-31g(2df,p)

Title Card Required 

0  1
C           1.74262         0.27606         0.63090
C           3.26666         0.89177         1.33191
C           3.47837         1.62269         0.31093
S           2.48686         3.12273         0.52657
C           4.81417         1.58013        -0.29039
C           5.51584         2.62397        -0.11745
C           6.17993         3.67606         0.33222
C           7.13942         3.44668         1.36061
C           7.84241         4.28515         2.18659
C           7.71161         3.78500         3.74531
C           6.38543         4.03100         3.82827
N           5.56815         2.64563         3.13142
C           4.76536         1.70160         2.46765
H           0.92746         1.01452         0.53510
H           1.20162        -0.60367         1.04462
H           1.57548        -0.01733        -0.53740
H           1.22031         2.62981         0.68623
H           5.30711         0.57694        -0.21520
H           6.16506         4.60867        -0.17065
H           6.99828         2.43083         1.69614
H           7.69174         5.36596         1.93199
H           8.27963         4.12147         4.72944
H           7.06749         5.22144         3.73316
H           5.43954         0.78204         2.21166

