%chk=CC1dC2NdNC3qNrCdCCqdCNdCO3rCdCCdC2NdCCdC1.chk
%NProcShared=20
# opt freq b3lyp/6-31g(2df,p)

Title Card Required 

0  1
C           1.13613         0.27715         0.00622
C           2.54633         0.07812         0.04818
C           2.84798        -1.11585        -0.36051
N           1.93891        -1.91958         0.13643
N           0.71078        -1.95027         0.34868
C          -0.32355        -3.57715         0.21668
N           0.49748        -4.38925         1.49074
C          -0.84914        -2.78615         0.97796
C          -1.17275        -4.43426         0.51319
C          -2.45444        -3.06871         0.27727
C          -3.72567        -2.12211         0.01864
N          -3.19881        -0.96052         0.09615
C          -2.05611        -0.77644        -0.58082
O          -0.88426        -1.99356        -1.10001
C          -3.23686        -4.21707        -0.34688
C          -1.68407        -3.50181        -0.91961
C           0.80601        -3.25620        -0.90996
C           2.56067        -2.56962        -0.39218
N           4.30549        -1.49348        -0.02421
C           5.21382         0.02909        -0.00260
C           4.52962         1.46150        -0.01763
C           3.24684         1.27280        -0.02917
H           0.41986        -0.44368        -0.04567
H           0.75069         0.55228        -0.94085
H           0.72663         0.55573         0.92109
H           0.27732        -3.64708         2.08654
H           1.39458        -4.56745         1.18120
H          -1.30756        -1.88458         0.51620
H          -1.94389        -5.21152         0.00426
H          -4.92543        -1.85945        -0.07440
H          -2.82553         0.39815        -0.33810
H          -4.34543        -5.24606        -0.04162
H          -3.34199        -3.82233        -0.41038
H           2.10594        -3.73334        -0.12667
H           6.56106         0.82333         0.01583
H           4.88077         2.51385        -0.00854
H           2.59005         2.10081        -0.03465

