%chk=CC1dCCdCCdC2CdCCdCqCdOrCdC12.chk
%NProcShared=20
# opt freq b3lyp/6-31g(2df,p)

Title Card Required 

0  1
C           1.19420        -0.26895         0.02706
C           2.75964        -0.45434         0.15272
C           3.24357         0.84227         0.02226
C           4.56755         1.42726         0.04468
C           5.68909         0.77045         0.07122
C           5.88430        -0.64915        -0.13755
C           5.04786        -1.61689        -0.32808
C           5.41646        -2.69188        -1.26775
C           6.45910        -3.41596        -0.88741
C           5.86597        -4.59020        -0.35026
C           5.41343        -4.40518         0.89953
C           6.52936        -5.78325         0.78492
O           7.78589        -5.64421         0.71363
C           3.91590        -3.35107         0.74452
C           3.79119        -1.85980         0.39710
H           0.86365         0.81219        -0.01236
H           0.65464        -0.62097         0.90157
H           0.76572        -0.62710        -0.91623
H           2.56732         1.71777        -0.10269
H           4.64552         2.53100        -0.00880
H           6.62832         1.31368         0.01823
H           6.93046        -0.85783        -0.32791
H           4.53837        -3.31819        -1.54474
H           7.24389        -2.99594        -0.23183
H           5.39090        -5.36263        -0.97440
H           6.20868        -6.77794         0.35364
H           2.97806        -3.88540         0.56142

