%chk=CC1dCCdCCdCCdCdCNCC2CCdC12.chk
%NProcShared=20
# opt freq b3lyp/6-31g(2df,p)

Title Card Required 

0  1
C           3.38747        -2.08569         1.98770
C           5.20908        -3.47237         2.79135
C           4.30432        -2.29099         1.62596
C           4.92689        -1.30171         0.43229
C           5.72734        -2.31156         0.58550
C           7.08536        -2.27952         0.81796
C           7.74461        -3.34643         1.26745
C           9.18799        -3.40325         1.31474
C           9.86273        -4.44962         1.70226
C          10.52972        -5.49834         2.05234
N          10.65984        -5.75764         3.31510
C          10.70079        -6.93450         3.96866
C           8.94859        -5.92923         4.39774
C           9.53945        -7.64208         5.29035
C           7.81162        -6.35699         4.78523
C           6.88361        -4.90602         3.72124
H           2.74818        -0.95937         0.90564
H           2.21499        -0.96306         1.70687
H           2.23440        -1.69682         0.83447
H           3.16867        -2.71685         0.58246
H           5.29283        -0.28412         0.18947
H           5.22173        -3.31979         0.74285
H           7.55304        -1.37507         0.53905
H           7.17736        -4.21838         1.58547
H           9.72249        -2.51960         0.97146
H          11.11095        -6.13312         1.42550
H          10.24611        -5.11053         3.96364
H          12.11176        -6.91673         3.90070
H          10.77130        -7.96390         3.45540
H          10.25696        -6.13686         5.27342
H          10.75380        -8.31518         6.21483
H          10.58370        -8.89810         5.16784
H           8.20628        -7.51760         5.71101

