%chk=CC1dCCqdSrCdCCdCCdCCqNrdC2CCdCCdC2CqCrdC1.chk
%NProcShared=20
# opt freq b3lyp/6-31g(2df,p)

Title Card Required 

0  1
C           2.37981         0.10074         0.07925
C           4.79079         0.45902         0.31724
C           3.35070         1.02707         0.66340
C           4.89580         0.89253         0.55827
S           6.30838        -0.90994        -0.58467
C           5.42418         2.15785         1.37549
C           6.67848         2.41439         1.53374
C           7.41526         3.29635         2.09638
C           8.63979         3.46890         2.21057
C           9.33211         4.40223         2.81736
C          10.41742         4.95790         3.16044
C          11.59933         5.43052         3.44855
N          11.07238         6.49798         4.11738
C          12.54647         4.44708         2.83409
C          13.58034         6.08364         3.85108
C          15.06805         6.23814         3.95448
C          15.01724         4.85654         3.09553
C          13.40331         3.53652         2.27943
C          11.55171         2.71821         1.76468
C           9.31357         1.61103         1.06373
C          10.89623         2.64843         1.67482
C           7.24606         0.90016         0.60883
H           0.86520         0.77833         0.50602
H           0.93240        -0.79830         0.43340
H           0.93295         0.03562        -0.88643
H           2.63637         1.77128         1.13245
H           4.81546         2.86321         1.82324
H           7.67821         2.02250         1.27479
H           6.92845         4.00966         2.54763
H           9.31258         2.92292         1.86197
H           8.93330         5.12717         3.25220
H          11.11622         4.35764         2.81956
H          10.03328         6.53133         4.14016
H          11.52703         7.23711         4.58597
H          13.43109         6.35802         5.06008
H          13.48418         7.24403         3.47133
H          15.65130         7.16146         4.52197
H          16.61211         5.29165         3.36471
H          15.07211         3.57762         2.28335
H          10.46593         3.59066         2.03975
H          10.81567         2.21874         2.96902
H          10.85109         3.58764         0.73975
H           5.78810         0.16139         0.16194

