%chk=CC1dNCdC2CdCCdC1CdCSC2dN.chk
%NProcShared=20
# opt freq b3lyp/6-31g(2df,p)

Title Card Required 

0  1
C           1.73884         0.40560        -0.04803
C           3.44736         0.29569         0.04940
N           3.61846        -0.97991         0.29291
C           4.82886        -1.17834         0.76825
C           5.28410        -0.39103         1.77165
C           4.24394         0.75813         2.46755
C           3.54971         1.88808         1.91324
C           3.70869         2.30110         0.42705
C           4.74447         1.61894         0.09444
C           5.85863         2.41548         1.29560
C           6.64418         1.98523         2.32220
S           7.82104         0.78247         2.24435
C           6.81693        -0.39057         1.49850
N           7.47534        -1.14925         0.67474
H           1.32697        -0.47400         0.52063
H           1.35218         0.17149        -1.04832
H           1.17368         1.22380         0.41748
H           5.41027        -1.84253         0.13233
H           4.28201         0.66502         3.54728
H           3.09008         2.69410         2.47783
H           3.83215         3.28945        -0.06522
H           5.39833         3.33158         1.77075
H           6.29285         2.13888         3.36813
H           8.46138        -0.84951         0.67485

