%chk=CC1dCq[N][N]c2cccqCrcc2rCdCSN1NCNN.chk
%NProcShared=20
# opt freq b3lyp/6-31g(2df,p)

Title Card Required 

0  1
C           0.98606        -0.11319        -0.08181
C           2.50840         0.05506        -0.07277
C           3.07528         1.31170        -0.12257
N           2.59087         2.60134        -0.17419
N           1.18277         2.70626         0.16460
C           0.51873         3.86531         0.02532
C           0.83632         4.89094        -0.86305
C           0.11159         6.09084        -0.87523
C          -0.97055         6.28579        -0.00813
C          -1.68042         7.59809         0.05307
C          -1.35660         5.23432         0.82321
C          -0.62933         4.04107         0.81603
C           4.54335         1.39448        -0.11028
C           5.39353         0.36002        -0.10522
S           4.89905        -1.25180        -0.12823
N           3.22115        -1.18381        -0.02849
N           2.47321        -2.43707        -0.05504
C           3.35435        -3.58347        -0.05730
N           2.62704        -4.85381        -0.06593
N           3.62062        -5.93957        -0.08771
H           0.35891         0.76784        -0.11932
H           0.66158        -0.64440         0.81928
H           0.67589        -0.66733        -0.97343
H           1.67044         4.73496        -1.54121
H           0.42925         6.87183        -1.55438
H          -1.25885         8.30863        -0.66498
H          -1.57690         8.03487         1.05231
H          -2.74230         7.47293        -0.17839
H          -2.19506         5.32680         1.50322
H          -0.92745         3.21787         1.46228
H           4.97441         2.38761        -0.09317
H           6.45822         0.52336        -0.09611
H           1.92651        -2.41768        -0.91068
H           3.97846        -3.57221         0.84490
H           3.98035        -3.57023        -0.95905
H           2.03336        -4.85843        -0.89618
H           4.21501        -5.85223         0.74651
H           4.26727        -5.81839        -0.87434

