%chk=CC1dCCC2CCC2CdC2CCdCCdCCdNNdC12.chk
%NProcShared=20
# opt freq b3lyp/6-31g(2df,p)

Title Card Required 

0  1
C           2.64672        -0.47484        -1.33366
C           4.49190        -1.22663        -1.79272
C           4.11268        -1.41349        -0.41446
C           4.99115        -0.99041         0.62530
C           5.21272        -2.11995         1.53623
C           4.18333        -2.72043         2.51946
C           4.79306        -4.11367         2.13512
C           5.22313        -3.46053         0.73126
C           6.48721        -3.61278        -0.06273
C           6.92036        -2.99355        -1.26722
C           8.31498        -3.75013        -1.30952
C           8.90362        -3.47315        -2.56802
C          10.10300        -3.79007        -3.01614
C          10.22755        -3.47374        -4.33174
C          11.17564        -3.45347        -5.20005
C          10.24147        -2.30245        -5.84824
N           8.88124        -1.62623        -5.25191
N           7.39259        -1.52798        -3.95432
C           6.30546        -1.73048        -2.58966
H           2.37929         0.33774        -0.40525
H           1.90819        -1.14055        -0.49914
H           1.62398        -0.29985        -1.80713
H           3.19371        -1.48544         0.30667
H           4.97591         0.01363         1.06352
H           5.76444        -0.99296        -0.07871
H           6.16241        -1.81234         1.97482
H           3.12896        -2.61356         2.23244
H           4.20955        -2.35073         3.55442
H           3.99857        -4.87577         2.11504
H           5.53342        -4.49021         2.85258
H           4.44640        -3.69307        -0.00056
H           7.07314        -4.38057         0.51496
H           8.21887        -4.92552        -1.23103
H           9.06769        -3.58495        -0.52950
H           8.31689        -4.33556        -2.82235
H          10.64677        -4.63191        -2.71042
H           9.22833        -3.28913        -4.66265
H          12.14298        -3.95855        -4.96341
H          10.79764        -2.10399        -6.95527

