%chk=CC1dCCdC2NdCSCdCCdCCdC[SH]2S1.chk
%NProcShared=20
# opt freq b3lyp/6-31g(2df,p)

Title Card Required 

0  1
C           1.10822        -0.12602        -0.08281
C           2.66119        -0.31002        -0.15316
C           3.43605         0.79117        -0.12710
C           4.90865         0.64528        -0.19214
C           5.91242        -0.33854        -0.32611
N           7.19148         0.05807        -0.20056
C           7.91986        -0.93543         0.12350
S           9.59497        -0.95842        -0.11451
C           9.88497        -2.55531         0.46287
C          11.11457        -3.05706         0.46203
C          11.25706        -4.51021         0.48355
C          11.07014        -4.60616        -0.83597
C           9.32868        -4.28933        -1.26107
C           7.59934        -3.75575        -0.99999
S           5.90944        -2.39927        -0.45774
S           3.39225        -2.17786        -0.51284
H           0.71817         0.92192        -0.07074
H           0.69028        -0.58886         0.81826
H           0.65749        -0.58640        -0.96273
H           2.93386         1.83036        -0.05269
H           5.24315         1.71152        -0.07404
H           7.61889        -1.92967         0.47381
H           9.12386        -3.33650         0.64203
H          11.88618        -2.45000        -0.04202
H          10.67432        -5.35360         0.84335
H          12.33571        -4.36827        -0.88436
H           9.75872        -5.45768        -1.35531
H           7.30129        -3.59347        -2.00665
H           5.68091        -2.43415         0.89466

