%chk=CC1dNCdCCdCCdCC2dCCdCCdCCdC2CdC[N]1.chk
%NProcShared=20
# opt freq b3lyp/6-31g(2df,p)

Title Card Required 

0  2
C           2.75517        -0.51786        -1.19741
C           4.61391        -0.67649        -2.46902
N           3.85519         0.37557        -1.82688
C           4.80479         0.86344        -1.11342
C           5.46703         1.38307        -2.14612
C           6.89281         1.23755        -1.99941
C           7.62806         1.52293        -3.05564
C           9.04051         1.17260        -2.94270
C           9.73464         1.82680        -3.83759
C          11.08105         1.07845        -4.17921
C          11.83432        -0.02966        -3.95318
C          13.30499        -0.02611        -3.96691
C          13.98546         0.87059        -3.22949
C          13.31025         1.90900        -2.48104
C          12.59918         2.86483        -3.11326
C          12.26458         2.77264        -4.64069
C          11.15459         1.79912        -5.34674
C           9.42299         0.71883        -5.55150
C           7.90319         0.02330        -4.67425
N           6.21803        -0.47095        -3.59505
H           1.42371         0.00294        -1.37089
H           2.01988         0.29215        -0.12319
H           1.73634        -1.08150        -0.29032
H           5.10837         0.19540        -0.24074
H           4.86444         1.03628        -3.24157
H           7.32445         0.42224        -1.37988
H           6.94046         1.41907        -4.09797
H           9.55566         0.40406        -2.37554
H           8.93643         2.32289        -4.83870
H          11.34210        -0.81432        -3.41899
H          13.85354        -0.75535        -4.54755
H          15.06854         0.88380        -3.23961
H          13.29519         1.83535        -1.39505
H          12.07022         3.59951        -2.50764
H          13.04555         3.58820        -5.04345
H          10.48107         1.56260        -6.22883
H           8.83559        -0.22290        -5.70648

