%chk=CC1dCCdCCSNCdCC2dCCdCNN2NN1.chk
%NProcShared=20
# opt freq b3lyp/6-31g(2df,p)

Title Card Required 

0  1
C           2.48248        -0.46932         0.71384
C           4.32356        -1.02914         1.87236
C           3.46948         0.13819         1.67366
C           4.55619         0.95004         1.41300
C           5.31666         0.85635         2.54162
C           7.03537         0.48425         2.42340
S           7.52210         0.99579         4.11209
N           9.23642         0.49399         4.00038
C           9.97965         0.68688         5.10242
C          11.27179         0.39308         5.04500
C          11.42615        -0.10016         6.22802
C          12.80900         0.69767         6.75169
C          13.60767         0.76872         7.99489
C          12.73611        -0.15751         8.53390
N          11.10675        -0.91361         7.72005
N           9.85632        -1.16428         6.01661
N           8.00998        -1.33200         4.50487
N           6.14515        -1.26144         3.12279
H           1.12485        -0.06304         1.21060
H           1.28748        -0.90416        -0.16419
H           1.53087         0.58029        -0.06288
H           2.62871         0.15006         2.41984
H           5.16852         0.62852         0.47814
H           4.82441         0.21630         3.42549
H           7.37525         1.18645         1.74364
H           7.50873        -0.58024         1.92840
H           9.75154         0.07827         3.21320
H           9.38055         0.56681         6.15320
H          11.99078         0.08521         4.36333
H          13.41897         1.49504         6.14574
H          14.61440         1.44877         8.27837
H          13.61056        -0.10766         9.76405
H          11.58397        -1.36214         8.90823
H           8.06564        -1.31000         5.66814
H           6.01165        -1.05310         1.70956

