%chk=CC1dCCdC2CqCrCdNOC2CCCC2CC2dN1.chk
%NProcShared=20
# opt freq b3lyp/6-31g(2df,p)

Title Card Required 

0  1
C           1.35498        -0.40543        -0.13665
C           2.84045        -0.51013        -0.47395
C           3.31462         0.69749        -0.84405
C           4.68342         1.09241        -0.62158
C           5.39306         1.92269        -1.41118
C           4.71643         2.92041        -2.26160
C           3.89137         3.80738        -1.32086
C           5.68315         3.81842        -2.95629
N           6.97373         3.78706        -2.93043
O           7.62222         2.82164        -2.14806
C           6.89640         1.79378        -1.47473
C           7.34724         0.43414        -2.10302
C           6.58564        -0.71465        -1.49134
C           6.72726        -2.14389        -1.89700
C           5.59108        -2.88591        -1.12993
C           4.25104        -3.07704        -2.01006
C           4.26957        -2.32023        -0.84923
N           3.76311        -1.45463        -0.03458
H           0.90334         0.45534        -0.66882
H           1.19876        -0.14299         0.92094
H           0.73927        -1.25703        -0.41408
H           2.62650         1.43223        -1.23330
H           5.18852         0.49228         0.13321
H           4.10755         2.43717        -3.03753
H           4.55572         4.29957        -0.60018
H           3.16998         3.25780        -0.71068
H           3.32694         4.56077        -1.86730
H           5.22437         4.61587        -3.56659
H           7.25801         1.83412        -0.43848
H           8.41994         0.29044        -1.95660
H           7.16172         0.45527        -3.18321
H           5.56329        -0.54341        -1.81968
H           6.68956        -0.68763        -0.40012
H           7.73991        -2.49818        -1.68009
H           6.58710        -2.21417        -2.98546
H           5.96326        -3.37373        -0.24190
H           4.40377        -2.75148        -3.03400
H           3.54911        -3.89256        -1.93030

