%chk=CC1dc2ccccc2dCCqNCCdSrdCCdCNdCCdC1.chk
%NProcShared=20
# opt freq b3lyp/6-31g(2df,p)

Title Card Required 

0  1
C           1.04161         0.96190        -0.16805
C           1.57159         0.68995         1.10593
C           2.80470         1.31962        -0.12458
C           4.47455         0.89485        -0.48874
C           5.22305         1.50215        -1.48547
C           4.63410         2.23126        -2.58619
C           3.32579         2.07680        -2.84723
C           2.35354         1.41133        -1.91874
C           1.12214         0.92740        -2.51338
C           0.03252        -0.31294        -1.79077
N           0.71424        -1.44924        -0.52283
C           2.49385        -1.42475         0.13243
C           3.04805        -1.99296         1.42382
S           4.74424        -1.92644         1.78048
C          -1.10512         0.42324        -1.50725
C          -1.85599        -0.05396        -0.46908
C          -3.15427        -0.05292        -0.41544
N          -3.58298        -1.16949         0.23114
C          -3.55746        -0.74027         1.49879
C          -1.73508        -0.53833         1.97381
C          -0.00715        -0.07053         1.80282
H           1.72812         0.12080        -0.45983
H           0.33926         1.30909         0.53815
H           1.32643         0.11213        -0.89099
H           5.04807        -0.02050        -0.19484
H           6.33403         1.43925        -1.58261
H           5.29739         2.80467        -3.25662
H           2.94861         2.43678        -3.79878
H           0.61502         1.79541        -2.99192
H           0.21794        -0.94970         0.22346
H           3.03968        -0.47746         0.72083
H           3.08996        -1.36410        -0.76672
H           2.35348        -2.03333         2.25992
H          -1.47157         1.35436        -1.93613
H          -1.44133        -0.89736         0.04783
H          -3.79216         0.57272        -1.00234
H          -4.66218        -0.29747         1.09991
H          -2.38435        -1.45383         2.56915
H           0.62850        -0.78915         2.36351

