%chk=CC1dCC2dCCdNC2dNNd[C]CdCOO1.chk
%NProcShared=20
# opt freq b3lyp/6-31g(2df,p)

Title Card Required 

0  2
C           0.82942         0.37560        -0.29316
C           2.02940         0.95517        -1.03808
C           3.05883         0.06563        -1.17658
C           4.53568         0.14237        -1.14712
C           5.34915        -0.63449        -0.40374
C           6.70129        -0.29350        -0.83283
N           6.76436         0.54657        -1.80236
C           5.46436         0.85827        -2.10797
N           5.24283         1.63310        -3.11122
N           3.94475         1.98756        -3.11369
C           3.32168         2.09133        -4.06067
C           1.96197         2.24262        -4.50278
C           1.36206         3.18183        -3.76459
O           0.88067         2.82937        -2.46006
O           2.07868         2.33082        -1.52926
H           0.12264         0.05546        -1.05458
H           0.39327         1.06990         0.42922
H           1.00617        -0.55076         0.30940
H           2.89230        -0.32052        -2.20088
H           5.14254        -1.38890         0.33791
H           7.58401        -0.74421        -0.35277
H           1.47514         1.29516        -4.27901
H           1.36537         4.20559        -4.16847

