%chk=CC1dCqNrCNdC2CdNONdCCdC21.chk
%NProcShared=20
# opt freq b3lyp/6-31g(2df,p)

Title Card Required 

0  1
C           0.98025        -0.44726         0.07711
C           2.50482        -0.51518         0.08511
C           3.06198         0.76196         0.00840
N           2.42417         2.02316        -0.03206
C           4.54842         0.97516        -0.04324
N           5.33620        -0.17162        -0.35036
C           4.87260        -1.36426        -0.35591
C           5.92099        -2.29323        -0.80542
N           5.35944        -3.33398        -1.31358
O           6.08706        -4.44368        -1.30629
N           5.17607        -5.40854        -0.90791
C           4.14313        -4.93887        -0.22427
C           3.28601        -3.35875         0.12231
C           3.46104        -1.91379        -0.00908
H           0.58569         0.58425        -0.00276
H           0.53789        -0.77954         1.01494
H           0.55138        -0.91154        -0.80952
H           1.42898         2.18352        -0.12127
H           2.98005         2.87030        -0.17730
H           4.87644         1.42465         0.90113
H           4.77057         1.72382        -0.82081
H           6.96926        -2.04045        -0.72179
H           3.79016        -5.82259         0.35889
H           2.33946        -3.73267         0.54496

