%chk=CC1dCC2dCCdNCqdC1rCqCrdNCC2.chk
%NProcShared=20
# opt freq b3lyp/6-31g(2df,p)

Title Card Required 

0  1
C           1.00966        -0.03886        -0.03965
C           2.50427         0.03083        -0.13718
C           3.51569        -0.69424         0.37932
C           4.96229        -0.18124         0.48015
C           5.29771         0.21221         1.70850
C           4.37419         1.34445         2.10242
N           3.59874         2.15795         1.43225
C           3.46440         2.18705         0.01227
C           2.89743         1.25791        -0.74054
C           4.38599         3.04005        -0.80177
C           4.38656         3.16187        -2.35654
N           5.47403         3.31206        -0.16132
C           6.41677         2.22314        -0.52465
C           5.89263         0.60396        -0.55891
H           0.64118        -0.85891         0.57421
H           0.56544        -0.10023        -1.04109
H           0.63103         0.89733         0.40557
H           3.21390        -1.51364         1.04784
H           6.34312         0.42114         1.92976
H           4.42008         1.48849         3.19889
H           2.92651         1.16977        -1.82236
H           3.83665         2.39390        -2.89613
H           5.40256         3.07051        -2.76027
H           4.04288         4.14582        -2.67718
H           7.28421         2.38782         0.11967
H           6.78601         2.49520        -1.51996
H           6.85879         0.08982        -0.45700
H           5.55132         0.35042        -1.56783

