%chk=CC1dCqNSrSCqNrdCNdCCdCCdCSCdC1.chk
%NProcShared=20
# opt freq b3lyp/6-31g(2df,p)

Title Card Required 

0  1
C           3.17346         0.46290         0.39132
C           5.46358         1.36809         0.96945
C           3.59398         1.27947         0.91284
N           2.43122         2.00394         1.37554
S           0.70655         2.11060         1.44367
S           5.15383         0.91905         0.68266
C           5.63802         2.80747         1.88874
N           4.65563         3.40250         2.26877
C           6.93761         3.22253         2.15382
N           6.98767         4.18612         2.76924
C           8.09853         4.03669         2.67380
C           8.66737         5.08021         3.34027
C           9.33187         5.96420         3.90485
C          10.99211         6.62732         4.32837
C          12.54357         6.22407         4.07082
S          11.20527         5.39212         3.53948
C           9.55931         3.63935         2.42003
C           7.65027         2.33429         1.58653
H           1.46152         0.57908         0.46552
H           1.67477        -0.49261         0.50230
H           1.67477         0.16174        -0.52225
H           2.83718         2.67871         1.80650
H          -0.05078         1.05897         0.77202
H           3.79333         3.23733         2.16328
H           5.02195         4.13174         2.73451
H           8.70576         2.10289         1.43874
H           9.11001         2.78159         1.87221
H           8.34269         5.83787         3.82417
H           9.90606         4.87871         3.21158
H          10.35055         7.38084         4.80962
H          13.06998         5.33622         3.50378
H          11.11570         4.33913         2.86696
H           7.04500         1.28566         0.91680

