%chk=CC1dCCdCCdCC1C1CN1N.chk
%NProcShared=20
# opt freq b3lyp/6-31g(2df,p)

Title Card Required 

0  1
C           0.99413         0.04921         0.37332
C           2.50827         0.02111         0.16761
C           3.16796         1.18943         0.12921
C           4.58162         1.45841         0.04811
C           5.61756         0.62193         0.05969
C           5.61654        -0.81021         0.11672
C           4.56683        -1.63045         0.11757
C           3.07384        -1.38857         0.00040
C           2.58357        -2.07708        -1.27727
C           1.55198        -1.45891        -2.21650
N           2.95231        -1.48840        -2.56698
N           3.13930        -2.45342        -3.57656
H           0.58389         1.06044         0.29109
H           0.73416        -0.37326         1.34561
H           0.43338        -0.54555        -0.35006
H           2.57903         2.10653         0.17042
H           4.81901         2.52257         0.02127
H           6.61735         1.05612         0.03317
H           6.60856        -1.26527         0.11630
H           4.81329        -2.69529         0.12387
H           2.66597        -1.94384         0.86119
H           2.64219        -3.15720        -1.18821
H           1.21314        -0.43356        -2.17975
H           0.79538        -2.15773        -2.55124
H           3.34927        -1.93169        -4.43202
H           2.30332        -2.98934        -3.80079

