%chk=Cc1oc2cccc-2cccccc2ccnc1-2.chk
%NProcShared=20
# opt freq b3lyp/6-31g(2df,p)

Title Card Required 

0  1
C           0.06239        -0.98302        -0.29450
C           0.75650        -2.36734        -0.74650
O           2.26474        -2.07053         0.14210
C           3.89106        -1.49588         0.02352
C           4.71008        -0.55618         0.74488
C           6.24803        -0.77758         0.59535
C           6.42581        -1.87410        -0.13283
C           5.08764        -2.33422        -0.45294
C           5.04926        -3.43548        -1.17163
C           3.78989        -3.87214        -1.45240
C           3.49097        -4.91660        -2.16898
C           2.10229        -4.93710        -2.28904
C           1.20031        -5.66069        -2.78199
C           0.05360        -4.82530        -2.52593
C          -0.94821        -4.89058        -3.41194
C          -2.00192        -4.77217        -2.39461
N          -1.67887        -4.00240        -1.34472
C          -0.16442        -3.66214        -1.28779
H           0.66126        -0.07909         0.07136
H           0.18501        -1.12052         0.79255
H           0.33274        -0.42300        -1.20276
H           4.57161         0.29299         1.40889
H           7.13194        -0.24225         0.98149
H           7.36765        -2.34138        -0.42962
H           5.88102        -3.98774        -1.54801
H           3.00863        -3.26388        -1.05527
H           4.14441        -5.58592        -2.63680
H           1.74308        -4.00013        -1.89945
H           1.42611        -6.56230        -3.36896
H          -1.25864        -3.94451        -3.88013
H          -2.99067        -5.24166        -2.79564

