%chk=CC1qCrCdCCdCOC2dCC2dCCdN1.chk
%NProcShared=20
# opt freq b3lyp/6-31g(2df,p)

Title Card Required 

0  1
C           1.91797        -0.47113        -0.04063
C           3.61945         0.02444         0.15132
C           3.45963         0.98756        -1.05933
C           3.21630         0.49249         1.49206
C           4.22796         1.00383         2.09322
C           4.39593         1.10335         3.47227
C           5.66798         1.02044         3.70550
O           6.43045         1.29402         4.75900
C           7.67158         1.37524         4.37209
C           8.86292         1.58152         4.90292
C           8.47849         0.60050         3.53058
C           7.95800         0.28706         2.22720
C           6.69643        -0.23507         0.86485
N           5.44699        -0.37157         0.23108
H           1.33429         0.51412         0.13408
H           1.36198        -1.04491         0.73314
H           1.43793        -0.64100        -1.02877
H           2.84152         1.85071        -0.77769
H           2.90353         0.52213        -1.90243
H           4.41382         1.29585        -1.45428
H           2.28304         0.33265         2.02866
H           5.04748         1.22407         1.41736
H           3.64254         1.25005         4.19507
H           6.18273         0.68868         2.85208
H           8.67323         1.64580         6.00394
H           7.72988         1.31987         1.92425
H           7.52737        -0.53545         0.13202

