%chk=CCC1dCCdCCdCCdc2ncccc2dCNdC1.chk
%NProcShared=20
# opt freq b3lyp/6-31g(2df,p)

Title Card Required 

0  1
C           1.11931         0.01649        -0.25246
C           2.81613        -0.04837        -0.48464
C           3.99612         0.59747        -1.81239
C           4.65091         1.50236        -1.11796
C           4.99333         2.65414        -1.93090
C           6.25174         2.89437        -2.28738
C           6.40782         3.47269        -3.66650
C           7.62816         3.80398        -4.02159
C           8.14933         4.03604        -5.33636
C           9.40670         3.70372        -5.54859
N          10.13292         4.34581        -6.58914
C          11.39451         4.62333        -6.50753
C          12.14424         4.23268        -5.31088
C          11.55383         3.21514        -4.50219
C           9.84840         2.59101        -4.58415
C           8.64788         1.51906        -3.83208
N           6.93794         1.02977        -3.78558
C           5.39262         0.61611        -3.16424
H           0.76097        -0.58052         0.63986
H           0.59387        -0.43302        -1.09254
H           0.68677         1.01128        -0.03576
H           2.98607        -1.10788        -0.31864
H           3.04129         0.42456         0.52784
H           5.27991         0.79047        -0.55242
H           4.32189         2.94194        -2.75957
H           6.94952         2.11877        -1.86529
H           5.71432         3.33273        -4.50555
H           8.32436         3.59774        -3.20409
H           7.63435         4.50034        -6.14393
H          11.97763         5.08761        -7.38205
H          13.13300         4.79379        -5.28442
H          12.34349         2.95682        -3.78081
H           9.35911         1.22251        -3.01286
H           4.46026         1.13880        -3.86063

