%chk=CCC1CdCCdC2CqCrdCNdCqCqCrdOrC21C.chk
%NProcShared=20
# opt freq b3lyp/6-31g(2df,p)

Title Card Required 

0  1
C           0.46276        -0.10504         0.08686
C           1.93919        -0.02923        -0.05648
C           2.86855        -1.22298         0.37634
C           2.14873        -2.53784         0.25975
C           2.60611        -3.55985        -0.46179
C           3.85458        -3.47356        -1.16555
C           4.65663        -2.39498        -1.10396
C           5.93967        -2.24686        -1.78795
C           6.41189        -3.25365        -2.79248
C           6.71891        -1.21540        -1.38440
N           6.66566        -0.65711        -0.12568
C           5.47902        -0.61185         0.41537
C           5.37847         0.08399         1.79831
C           4.21378         0.96130         2.11109
O           6.31820        -0.00306         2.60520
C           4.23979        -1.08658        -0.39785
C           4.09067        -0.02043        -1.53973
H           0.08001         0.85001        -0.29404
H           0.16607        -0.24826         1.11911
H           0.09854        -0.89215        -0.57714
H           2.26712         0.94830         0.31166
H           1.97341         0.10436        -1.13079
H           3.07980        -1.23650         1.45577
H           1.24202        -2.66385         0.84778
H           2.05054        -4.49293        -0.50134
H           4.09389        -4.36175        -1.73973
H           5.78483        -4.14857        -2.82150
H           7.39761        -3.61051        -2.47275
H           6.47077        -2.87192        -3.81339
H           6.88708        -0.43280        -2.13881
H           3.36426         0.57944         1.61827
H           4.32745         1.98838         1.76841
H           3.89862         0.88095         3.15249
H           4.91744         0.18128        -2.21520
H           3.90309         0.96046        -1.08968
H           3.31369        -0.35889        -2.23391

