%chk=CCC1C2dCCdCCdCCdCC1COC2dO.chk
%NProcShared=20
# opt freq b3lyp/6-31g(2df,p)

Title Card Required 

0  1
C           1.01294         0.03625        -0.09316
C           2.52976        -0.02732        -0.07127
C           3.41862        -0.62207        -1.19138
C           4.29724        -1.66426        -0.54160
C           5.61528        -1.71510        -0.69101
C           6.22554        -0.55263        -1.23738
C           7.49763        -0.43959        -1.59785
C           7.69873         0.51206        -2.68545
C           7.51454        -0.27204        -3.75035
C           5.99924        -0.84134        -4.03269
C           4.62458        -1.22812        -3.62862
C           3.14220        -1.41234        -2.46548
C           2.17966        -2.65601        -1.67626
O           2.86199        -3.50782        -0.74423
C           3.66121        -2.82536         0.13601
O           3.85531        -3.10088         1.27869
H           0.68925         0.66866         0.74419
H           0.51620        -0.91820         0.09901
H           0.63590         0.46561        -1.02131
H           2.82573        -0.43624         0.90467
H           2.86463         1.01703        -0.00606
H           3.81534         0.28239        -1.64098
H           6.19439        -2.60381        -0.46581
H           5.58282         0.21084        -1.67192
H           8.11168        -1.33845        -1.55121
H           7.01012         1.36409        -2.71166
H           8.48177        -0.83707        -3.90151
H           6.03170        -0.24612        -4.98721
H           4.30587        -1.94946        -4.38827
H           2.33989        -0.90151        -3.03453
H           1.36398        -3.18005        -2.20541
H           1.50120        -2.15167        -0.96142

