%chk=CCC1CdCCdCCdCCdC2NdC2CC1.chk
%NProcShared=20
# opt freq b3lyp/6-31g(2df,p)

Title Card Required 

0  1
C           1.13212        -0.03355         0.23503
C           2.87725        -0.23586         0.69324
C           3.94180        -0.32227         2.46768
C           4.84302         0.20061         1.41518
C           5.58061         0.81813         2.28108
C           6.87067         0.33123         2.18742
C           7.51371         0.39310         3.30539
C           8.86516         0.13163         3.22046
C           9.53951         0.50833         4.25395
C          10.91977         0.22756         4.54555
C          10.36806        -0.21596         5.64850
N          10.24557        -0.62210         6.82922
C           8.90955        -0.88803         6.28372
C           7.10499        -0.69160         5.40286
C           5.27119        -0.84014         4.01796
H           0.86796         0.00067        -0.89273
H           0.66165         0.91587         0.54791
H           0.56004        -0.90462         0.54555
H           3.10267         0.72325         0.02062
H           3.10089        -0.98701        -0.11273
H           3.18804         0.54071         2.69079
H           5.09242        -0.13028         0.39862
H           5.08651         1.04684         3.26134
H           7.33281        -0.03250         1.30806
H           6.92274         0.73330         4.16259
H           9.44457        -0.09027         2.37189
H           8.89590         0.81567         5.09064
H          11.74589         0.06816         3.89783
H           7.15552         0.33850         6.03241
H           7.17758        -1.34951         6.42758
H           4.33784        -0.78319         4.63982
H           5.10733        -1.86081         3.65801

