%chk=CCC1dCCCNCdCC2dCNdCCdCNdCC1dCqCrNdC2.chk
%NProcShared=20
# opt freq b3lyp/6-31g(2df,p)

Title Card Required 

0  1
C           2.96440        -0.71625         0.56879
C           5.46771        -1.44921         1.20794
C           7.89394        -2.38140         2.08936
C           6.16312        -1.77775         1.50309
C           4.82781        -2.65722         2.25161
C           6.21494        -2.71240         2.29712
N           6.88553        -3.65146         3.11237
C           8.27427        -3.86534         3.29113
C           8.80275        -4.75435         4.06471
C          10.16457        -5.10457         4.36541
C          10.59953        -5.96444         5.11837
N          11.68185        -6.32719         5.43180
C          12.23034        -7.10548         6.10785
C          13.67409        -7.18484         6.17645
C          14.34604        -7.86472         6.76917
N          13.53135        -6.33187         5.43551
C          12.13725        -5.05605         4.40096
C          10.16504        -3.52640         3.24680
C          11.55981        -2.62125         2.42983
C          11.34283        -1.24046         1.02725
N          10.74811        -3.57629         2.49626
C          11.58696        -4.12264         3.46512
H           1.56722         0.23912        -0.25997
H           1.29294        -0.05981         0.94245
H           1.29296        -0.99356        -0.13444
H           4.20311        -0.21430         0.80481
H           4.20360        -0.87868         0.03841
H           5.90703        -0.50167         0.38164
H           4.54852        -3.43093         1.68741
H           4.54845        -2.20880         3.09711
H           6.82436        -1.32744         2.72095
H           6.82703        -2.93206         0.87140
H           6.23986        -4.13229         3.53001
H           9.03573        -3.10652         2.62162
H           8.12471        -5.27585         4.52155
H          10.02749        -6.49412         5.57790
H          11.84870        -7.69895         6.62244
H          14.95750        -6.28300         5.39460
H          13.88967        -8.78718         7.56600
H          13.61910        -5.99295         5.16104
H          12.19022        -0.62759         0.49237
H          10.75157        -0.41386         1.47195
H          10.75149        -1.56955         0.14238
H          12.61327        -3.94264         3.36928

