%chk=CCc1ccccc2ccccccnc1-2.chk
%NProcShared=20
# opt freq b3lyp/6-31g(2df,p)

Title Card Required 

0  1
C           2.09499        -0.53830        -0.34106
C           4.25984        -1.43092        -1.08926
C           6.35100        -2.70854        -2.16016
C           5.07393        -1.54854        -1.18785
C           5.58762        -2.61655        -2.08308
C           7.73093        -2.62056        -2.08649
C           6.70535        -3.89608        -3.15561
C           7.68719        -4.24935        -3.45173
C           8.25253        -4.95603        -4.04407
C           9.29458        -5.20960        -4.25663
C           9.95997        -6.14361        -5.03952
C          11.52147        -6.29368        -5.16531
C          12.12641        -7.27082        -5.98437
C          11.81343        -5.96332        -4.88839
N          10.53966        -4.70059        -3.82993
C           8.42079        -3.62401        -2.92752
H           0.94680         0.50760         0.53564
H           0.74408        -1.04193         0.36214
H           0.74408         0.06612        -0.95977
H           3.43492        -0.70759         0.31534
H           3.43492         0.07843        -0.62239
H           5.38501        -0.64896        -0.43381
H           4.27457        -3.02707        -2.42719
H           7.38403        -1.77971        -1.38163
H           5.90506        -4.32422        -3.51448
H           7.88853        -5.57321        -4.56140
H          10.10317        -3.89066        -3.15107
H           9.73954        -6.86571        -5.64480
H          12.57804        -5.21534        -4.26143
H          11.73513        -8.00957        -6.60360
H          13.56423        -6.55881        -5.38754

