%chk=CCC1CdCC2dCCdCCdNCdCCdCC2CC1.chk
%NProcShared=20
# opt freq b3lyp/6-31g(2df,p)

Title Card Required 

0  1
C           0.96560        -0.03572         0.09561
C           2.45318        -0.03977         0.10410
C           3.06671         1.24654        -0.42465
C           2.38649         2.47992        -0.91780
C           1.94695         2.73350        -2.18084
C           1.81979         2.00405        -3.59166
C           2.17004         2.82383        -4.57665
C           2.58712         2.16278        -5.75670
C           2.54840         2.59340        -6.98880
C           3.02283         1.53918        -7.89578
N           3.14850         1.64287        -9.18104
C           2.68892         0.45895        -9.73521
C           1.38620         0.50018        -9.47955
C           0.97362        -0.00156        -7.78271
C           1.13629        -0.05206        -6.17064
C           1.73027         0.37323        -4.23089
C           3.14108        -0.05836        -3.08149
C           3.89568         0.78614        -1.64664
H           0.62588        -1.05301         0.29322
H           0.60067         0.26838        -0.88846
H           0.59557         0.64776         0.85986
H           2.79434        -0.87494        -0.51242
H           2.87196        -0.30253         1.08872
H           3.59668         1.62044         0.49583
H           2.56037         3.34373        -0.21567
H           1.79572         3.82814        -2.24778
H           2.35433         3.87757        -4.46334
H           2.96358         1.14639        -5.63828
H           2.17054         3.56013        -7.23693
H           3.06923         0.49378        -7.48303
H           3.05365        -0.54018        -9.49858
H           1.14346         1.29338       -10.28529
H           0.39402        -0.71019        -8.51473
H           0.42020        -0.82683        -5.84741
H           0.85677         0.00160        -3.67496
H           4.04209        -0.06765        -3.69522
H           2.96473        -1.05905        -2.65515
H           4.54703         1.61571        -1.96469
H           4.62012         0.08936        -1.17274

