%chk=CCC1dCCdCqCrCqCrCdCNdNCdC1.chk
%NProcShared=20
# opt freq b3lyp/6-31g(2df,p)

Title Card Required 

0  1
C           1.12637         0.04684         0.08378
C           3.05641         0.81203         0.37456
C           4.40458         2.55407         0.99062
C           4.56037         1.30931         0.60663
C           5.30325         2.46551         1.11950
C           6.70056         2.63950         1.30465
C           7.44352         1.67364         0.72724
C           6.88534         4.77806         2.23452
C           6.14162         4.60817         3.43664
C           7.62082         3.55108         1.92647
C           7.48950         5.48780         2.37885
N           8.99945         4.70963         2.12533
N           9.68393         5.85054         2.32248
C           8.30897         4.74001         1.32404
C           6.24356         4.09534         1.14414
H           0.68709        -1.01993        -0.33859
H           0.63037         0.71677        -0.60712
H           0.63082         0.06036         1.04763
H           2.95617        -0.08828        -0.88859
H           2.95698        -0.71561         0.69844
H           5.15941         0.58619         0.29184
H           4.92582         4.10430         1.82092
H           6.70935         1.01152         0.46607
H           7.85172         1.61015         1.69946
H           7.84605         2.30420        -0.01380
H           6.37057         5.46902         1.06804
H           6.56463         3.75672         3.88519
H           5.10509         4.59065         3.26287
H           6.48966         5.55385         3.73482
H           8.75597         3.19493         1.36512
H           8.33451         6.56373         2.66664
H          10.10630         5.28700         2.01646
H           4.36216         3.48341         1.25508

