%chk=CCC1dCNdCCdCCqSrdNCdCCdN1.chk
%NProcShared=20
# opt freq b3lyp/6-31g(2df,p)

Title Card Required 

0  1
C           1.68848        -0.49195         0.28130
C           3.57952        -1.53591         1.03869
C           4.98905        -3.14062         2.23467
C           4.73120        -1.72786         1.15999
N           5.53076        -2.48713         1.68872
C           6.71871        -2.54017         1.72558
C           7.10402        -3.75875         2.20489
C           8.36615        -3.59449         2.47854
C           8.60655        -4.61099         3.14076
S           6.91866        -6.41612         4.44402
N           9.96821        -4.87599         3.37702
C           9.16390        -5.72217         3.91275
C          10.28881        -6.21158         4.35221
C           8.20452        -5.59183         3.97503
N           6.72980        -4.18772         3.60058
H           0.94507         0.67279        -0.54657
H           0.81173         0.01471         1.00356
H           0.81190        -1.00790        -0.43666
H           3.28978         0.10217         0.68857
H           3.29043        -0.68222        -0.41077
H           5.22540        -0.79113         0.49504
H           7.10075        -1.83839         1.23837
H           6.15870        -5.15701         3.17403
H           9.11924        -3.13772         2.16502
H           5.80189        -6.12156         4.28549
H           8.77495        -7.10735         4.92535
H          11.84383        -6.12354         4.28297
H           9.69837        -6.55886         4.76348

