%chk=CCCCC1dCCdCCdCCdCCqSrdNNdC1.chk
%NProcShared=20
# opt freq b3lyp/6-31g(2df,p)

Title Card Required 

0  1
C           1.05179        -0.10148         0.02017
C           2.60642        -0.14206        -0.00567
C           3.15733        -1.47769        -0.85644
C           4.93337        -2.07999        -1.23965
C           5.79697        -3.72081        -2.28666
C           6.55102        -2.70599        -1.63080
C           7.34241        -3.58616        -2.19312
C           8.53564        -3.91610        -2.41112
C           8.84218        -5.03505        -3.16148
C          10.23914        -5.12996        -3.18804
C          10.68713        -6.26063        -3.87458
C          11.92463        -6.79529        -4.22248
C          11.91820        -8.03776        -4.97463
S          11.22735        -9.43114        -5.92124
N          10.51532        -7.60428        -4.96342
N           8.81102        -6.41344        -3.86496
C           7.14729        -5.37600        -3.35225
H           0.66547         0.76715         0.57337
H           0.65613        -1.00153         0.49776
H           0.65613        -0.04932        -0.99740
H           2.92194        -0.14656         1.04327
H           2.92194         0.80657        -0.45333
H           2.68711        -1.28638        -1.80758
H           2.68715        -2.25881        -0.28068
H           5.07908        -1.63626         0.05410
H           5.07884        -0.71973        -1.38521
H           7.28756        -2.03205        -1.21622
H           6.94770        -4.30017        -2.62947
H           9.16361        -3.26802        -1.99593
H           7.67838        -6.25077        -3.97979
H          11.05525        -4.59537        -2.84140
H           9.46494        -7.29152        -4.48162
H          12.78932        -6.27510        -3.91091
H          10.00556        -8.94956        -5.61569
H           5.81254        -5.50814        -3.42317

