%chk=CCCCC1CdCCdCCdCCdCdC1CCdO.chk
%NProcShared=20
# opt freq b3lyp/6-31g(2df,p)

Title Card Required 

0  1
C           0.99251        -0.04097        -0.08087
C           2.53491        -0.08469        -0.07841
C           3.09782        -1.55868         0.14446
C           4.71638        -1.74423         0.01774
C           5.75994        -3.23943         0.20480
C           6.89398        -2.61901         0.74390
C           7.45194        -3.60383         1.42079
C           8.84462        -3.63167         1.32374
C           9.42069        -4.73574         1.79329
C          10.83717        -4.96124         1.62273
C          10.85349        -6.15150         0.98988
C           9.88054        -5.89301        -0.41834
C           8.22119        -5.30691        -0.59676
C           6.73260        -4.69921        -0.72483
C           4.77320        -4.89737        -0.89940
C           3.51708        -5.21696        -1.96465
O           2.29643        -5.04494        -1.80425
H           0.61170         0.97454        -0.26633
H           0.58626        -0.37092         0.88084
H           0.58578        -0.68761        -0.86523
H           2.87686         0.61508         0.69779
H           2.86973         0.30919        -1.04510
H           2.60375        -2.15156        -0.62275
H           2.70678        -1.85325         1.13291
H           5.02274        -1.06955         0.85367
H           5.00624        -1.21812        -0.89169
H           5.14101        -3.65303         1.05738
H           7.25003        -1.74468         0.22820
H           6.88072        -4.57478         1.54175
H           9.32221        -2.96305         0.59161
H           8.79429        -5.68215         1.74438
H          11.30218        -4.14714         0.99407
H          10.87325        -7.18287         1.39756
H          11.22650        -5.59382        -0.44573
H           4.43583        -3.80370        -1.09170
H           4.16615        -4.86225         0.07551
H           3.83465        -5.50326        -2.95299

