%chk=CCCqdOrC1dCCdCNdCCdCCdCS1.chk
%NProcShared=20
# opt freq b3lyp/6-31g(2df,p)

Title Card Required 

0  1
C           0.99462         0.03988        -0.04145
C           2.83021        -0.14419        -0.15434
C           4.18553        -1.57755        -1.03334
O           2.65468        -1.98085        -1.28066
C           6.34019        -2.31997        -1.48863
C           4.99695        -2.69754        -1.72017
C           6.44225        -2.88975        -1.83804
C           6.60280        -4.02446        -2.53409
N           7.50495        -4.72416        -2.96261
C           8.30123        -5.47206        -3.42184
C           9.22270        -4.86772        -3.05103
C          10.04724        -6.03955        -3.76965
C          11.83677        -6.08950        -3.80028
C          10.74568        -5.10884        -3.19890
S           8.77927        -3.30874        -2.09498
H           0.59358         0.93867         0.50973
H           0.57816        -0.82586         0.46628
H           0.57816         0.09988        -1.04330
H           2.85321         0.02486         0.98435
H           2.85321         0.94737        -0.51995
H           4.18615        -3.28016        -2.07746
H           7.58148        -1.86967        -1.21248
H           5.94524        -4.60294        -2.88865
H           7.88041        -6.14560        -3.83467
H          10.62844        -3.96427        -2.49699
H           9.93577        -7.07230        -4.40298
H          12.91998        -5.91444        -3.69293
H          11.42399        -6.43827        -4.01416

