%chk=CCCqCrc1ccc2nn3cqcc1-2rCdCCdCCdCCdCO3.chk
%NProcShared=20
# opt freq b3lyp/6-31g(2df,p)

Title Card Required 

0  1
C           0.95379         0.06916         0.05190
C           2.47431         0.07252         0.02699
C           3.03777        -0.01258        -1.42249
C           2.48167         1.17260        -2.19410
C           4.60888        -0.02929        -1.63150
C           5.43930        -0.02054        -0.43946
C           6.76238        -0.01713        -0.92501
C           7.08388        -0.02181        -2.84594
N           8.14471        -0.03318        -4.19934
N           8.23428        -0.08230        -6.23246
C           6.51181        -0.03409        -5.45688
C           5.38910        -0.02075        -4.27027
C           5.45627        -0.02411        -2.80711
C           5.72163        -0.00677        -6.51584
C           6.50798         0.00832        -7.49701
C           6.23258        -0.01277        -8.74812
C           7.07682         0.07788        -9.63717
C           7.04122         0.13181       -10.93998
C           8.39460         0.28627       -11.05357
C           8.63684        -0.22091       -12.16272
C           9.10724        -0.44142       -10.41240
O           9.02845        -0.13752        -8.23271
H           0.58143         0.13846         1.07406
H           0.57388        -0.84533        -0.40860
H           0.55517         0.92485        -0.49474
H           2.82609        -0.77802         0.61776
H           2.82590         0.99214         0.50742
H           2.62582        -0.93731        -1.84887
H           2.82618         2.10719        -1.74300
H           1.39008         1.18475        -2.22148
H           2.81590         1.12950        -3.22364
H           4.99219        -0.01900         0.61655
H           7.50071        -0.01765        -0.10953
H           4.24010        -0.02311        -4.38266
H           4.71561        -0.00510        -6.67645
H           7.50609         0.02690        -7.59478
H           5.33955        -0.00816        -9.12294
H           7.98307         0.31387        -9.30204
H           6.20381         0.00363       -11.57928
H          10.06259         0.39208       -11.14035
H           7.64290         0.01281       -13.24235
H           9.51615        -0.23661       -12.00911

