%chk=CCN1CdC2CdCCdCCdCCdC2C1dO.chk
%NProcShared=20
# opt freq b3lyp/6-31g(2df,p)

Title Card Required 

0  1
C           1.13905         0.03829        -0.09440
C           2.68040         0.17767        -0.26896
N           3.38348         0.80773        -1.67193
C           4.11799        -0.05459        -2.43432
C           4.77069         0.48971        -3.48749
C           5.36332        -0.40279        -4.40675
C           5.34614         0.13068        -5.59597
C           6.15795        -0.07051        -6.72137
C           6.10428         1.05811        -7.45597
C           7.30379         1.87912        -7.25569
C           6.80149         2.70162        -6.24380
C           5.58196         2.80237        -4.85630
C           4.73340         2.02607        -3.73944
C           3.42253         2.10820        -2.42390
O           2.55061         2.94775        -2.26807
H           0.84753        -0.34761         0.91224
H           0.70013        -0.67836        -0.79484
H           0.65118         1.00673        -0.18304
H           3.07048        -0.84995        -0.06868
H           3.03491         0.75743         0.59769
H           4.07910        -1.11891        -2.21175
H           5.72564        -1.38875        -4.19836
H           4.73178         1.02303        -5.70493
H           7.07500        -0.64037        -6.58380
H           5.24239         1.76069        -7.43473
H           7.70064         1.05789        -7.92626
H           6.94172         3.60065        -6.95589
H           5.38640         3.89278        -4.85881

