%chk=CCN1CdC2CdC2CdC1S.chk
%NProcShared=20
# opt freq b3lyp/6-31g(2df,p)

Title Card Required 

0  1
C           0.88097         0.03237        -0.00712
C           2.39767         0.04335        -0.07234
N           2.92476         1.02864         0.87732
C           2.63505         2.37393         0.68207
C           2.86387         3.41484         1.46517
C           3.28632         4.08966         2.54027
C           3.66834         2.91563         2.89505
C           3.94683         1.52357         2.96506
C           3.61030         0.61365         2.03008
S           4.07198        -1.07717         2.32233
H           0.49209        -0.75885        -0.64957
H           0.46093         0.98624        -0.33962
H           0.53744        -0.14178         1.01930
H           2.76551         0.26760        -1.07883
H           2.73753        -0.97071         0.14466
H           2.12154         2.56793        -0.26046
H           3.30333         5.08157         2.91430
H           4.47148         1.21236         3.86329
H           4.66362        -1.02410         3.51705

