%chk=CCOC1dNCqOrdCdCCqdOrCCqCrCCC1dN.chk
%NProcShared=20
# opt freq b3lyp/6-31g(2df,p)

Title Card Required 

0  1
C           0.99552         0.09134         0.11259
C           2.69306         0.24122         0.25493
O           3.87618         1.09021         1.59474
C           5.09935         2.00367         2.76632
N           5.04118         0.70416         3.18349
C           6.29804         0.34736         3.30961
O           7.26133         0.21306         2.22664
C           6.68505         0.81821         4.42750
C           7.01480         1.17030         5.60101
C           7.51557         2.32856         6.00849
O           7.57420         2.76025         4.92839
C           7.96840         2.66839         7.31071
C           8.15826         3.89861         6.76926
C           7.08129         5.52158         6.89502
C           8.78074         4.81867         7.31874
C           8.02947         4.42015         5.24680
C           6.73656         3.29937         3.46361
N           6.44821         2.40092         2.10564
H           0.59549        -0.19533        -0.92011
H           0.55438         1.04758         0.33354
H           0.57145        -0.67859         0.76945
H           2.85864         0.81969        -0.65667
H           2.89574        -0.87666        -0.13725
H           6.87119         0.25998         1.33388
H           7.06287         0.59112         6.40737
H           8.99716         2.42655         7.51486
H           7.26401         2.98734         8.02079
H           9.54879         4.07646         6.41955
H           6.48408         5.42561         7.73000
H           6.75031         5.53160         5.87185
H           7.66266         6.60966         6.90793
H           9.75952         4.37492         8.37569
H           8.31081         4.87586         8.76117
H           9.00906         5.39442         5.76583
H           8.52207         5.54964         6.04191
H           6.30325         1.57432         0.95391

