%chk=CCOC1dC2CdNCdCqCdCNdCCdC1rCdCNdN2.chk
%NProcShared=20
# opt freq b3lyp/6-31g(2df,p)

Title Card Required 

0  1
C           1.08650        -0.10167        -0.03422
C           2.66432        -0.16784        -0.00992
O           3.25851        -1.66262         0.53898
C           4.75975        -2.53540         0.85948
C           5.87043        -3.88555         1.35527
C           6.52808        -2.64667         0.90033
N           7.33734        -3.50798         1.21662
C           8.53364        -3.81148         1.32807
C           8.70200        -5.02089         1.77218
C           7.28668        -6.73425         2.40134
C           6.03904        -6.82783         2.43571
N           5.26042        -7.75113         2.77475
C           4.23760        -7.05410         2.51879
C           4.01830        -5.43356         1.92371
C           4.01676        -3.89567         1.35898
C          10.19337        -5.59475         1.98277
C          10.10591        -6.79849         2.42521
N           8.74847        -6.43120         2.29006
N           7.14442        -5.24845         1.85574
H           0.69194         0.87239        -0.39191
H           0.68034        -0.26245         0.96671
H           0.68034        -0.87201        -0.69324
H           2.95937         0.67614         0.63371
H           2.95937         0.05905        -1.04679
H           7.25893        -1.97288         0.65291
H           9.37695        -3.33402         1.15274
H           7.87644        -7.75280         2.77537
H           5.66289        -5.92694         2.10489
H           3.54388        -5.77430         2.04884
H           3.20086        -6.79706         2.42441
H           4.82123        -2.66936         0.90866
H          11.04778        -5.05398         1.78432
H          10.02187        -7.85544         2.81291

