%chk=CCqCdOrdCC1dCCdCC2dCCqdCC2rCdCNdCCdC1.chk
%NProcShared=20
# opt freq b3lyp/6-31g(2df,p)

Title Card Required 

0  1
C           1.40299        -0.03742        -0.10141
C           3.21347        -0.31272        -0.22073
C           3.47662        -1.38913         0.70301
O           2.64599        -2.10325         1.23485
C           4.47798         0.11198        -0.88117
C           6.37596        -0.00301        -1.34315
C           6.15638         1.38217        -1.49259
C           7.29813         2.05507        -1.17337
C           7.75989         3.04744        -1.89279
C           9.16646         2.98333        -1.91522
C           9.98445         1.95149        -2.14929
C          11.37707         2.39847        -2.01899
C          11.32886         3.68368        -1.68642
C           9.93737         4.16056        -1.57233
C          12.62869         1.68403        -2.17248
C          12.40765         0.43143        -2.46429
N          12.88801        -0.78095        -2.56438
C          11.70554        -1.48768        -2.54771
C           9.88935        -1.19439        -1.81420
C           8.18148        -0.77064        -1.34761
H           0.87422        -0.88001         0.44651
H           0.85423        -0.09330        -1.06382
H           0.93512         0.82579         0.45044
H           4.54091        -1.46841         0.85129
H           3.91514         1.10619        -1.19014
H           5.26850         2.10830        -1.53807
H           7.91257         1.41947        -0.57041
H           7.14090         3.74050        -2.44392
H           9.63201         0.96986        -2.41510
H          12.16228         4.32570        -1.52607
H           9.71516         4.91155        -2.31993
H           9.71473         4.44686        -0.54581
H          13.59838         2.09911        -1.99154
H          11.41518         0.32881        -2.80807
H          12.07875        -2.41943        -3.11790
H          10.77915        -1.87852        -1.22199
H           7.94696        -1.20328        -0.36722

