%chk=CCqdOrc1dc-cdc-cdc2cnc-2dc-ndc-c2cc-1c2.chk
%NProcShared=20
# opt freq b3lyp/6-31g(2df,p)

Title Card Required 

0  1
C           1.48267        -0.35089         0.91161
C           3.09500        -0.97341         2.01162
O           3.69840        -0.35214         0.90796
C           4.07914        -1.64623         3.69389
C           4.75371        -1.22181         2.68790
C           5.99145        -0.98310         2.12282
C           7.06933        -1.16138         2.48504
C           7.82324        -1.70212         3.54680
C           9.05239        -1.73238         3.60588
C          10.07182        -1.28723         2.73426
N          10.97653        -1.69942         3.52948
C          10.03905        -2.17402         4.46115
C           9.90176        -2.75601         5.58729
N           8.86881        -3.04422         6.31703
C           8.55024        -3.68933         7.21224
C           6.85297        -3.90824         6.93844
C           6.19717        -2.46719         6.72888
C           5.31630        -2.62649         5.26617
C           5.47729        -3.98797         6.50591
H           1.32120         0.27471        -0.32137
H           0.87466         0.53568         1.20052
H           0.87405        -1.10817         0.35815
H           9.92621        -0.78487         1.75674
H           6.47744        -3.23116         7.98551
H           4.95779        -4.07943         7.79003

