%chk=CCqdOrC1dCCdCSCqCrdNSS1.chk
%NProcShared=20
# opt freq b3lyp/6-31g(2df,p)

Title Card Required 

0  1
C           1.14986         0.16577         0.11150
C           2.76052         0.26373         0.38753
O           3.25966        -0.54585        -0.44461
C           3.81086         1.51685         1.26967
C           4.90226         0.97707         0.60006
C           6.12778         1.42776         0.84012
C           6.88422         2.52246         0.54026
S           7.40628         3.96219         1.43814
C           8.94403         3.22159         2.15471
C           9.85726         1.98063         1.42402
N           8.67989         3.22580         3.41574
S           7.21300         1.94405         3.72993
S           4.76285         2.37165         3.00702
H           0.84420        -0.68091        -0.61171
H           0.67884         1.01439        -0.39195
H           0.64313        -0.15694         1.01049
H           4.92943         0.12309        -0.01907
H           6.28875         1.20439         1.85558
H           7.65064         1.77467         0.78056
H           9.26146         1.21600         0.90631
H          10.47219         1.31858         2.08726
H          10.55930         2.34302         0.66266

