%chk=CdC1CC2dC1CdCCdCNdCqCOrCqNrdCCdC2.chk
%NProcShared=20
# opt freq b3lyp/6-31g(2df,p)

Title Card Required 

0  1
C           3.20689         0.67053         0.12326
C           5.01491         1.56877         0.60638
C           3.83218         1.71374        -0.01481
C           5.88649         1.07934         0.05430
C           7.11701         2.41874         0.63301
C           9.29198         3.68362         0.95641
C          10.93168         4.52237         0.38934
C           9.50114         5.32734        -0.10448
C           8.79241         4.23369        -0.81509
N           8.06161         5.16708        -0.02531
C           7.74911         3.95489         0.02368
C           6.22580         4.02855         0.05369
O           5.88096         5.27991         0.10057
C           8.88800         2.09982         0.02474
N          10.26119         1.89263         0.11905
C           8.29933         0.87994         0.06403
C           6.80629         0.83776        -0.02238
C           6.05356        -0.27924         0.02683
H           1.53778         0.90159         0.07628
H           1.77790        -0.16778         0.10646
H           3.32640         1.92170         1.11279
H           3.34128         2.09192        -0.87512
H          10.66144         4.68221         0.39524
H          12.54288         4.79878         0.15303
H          10.18332         6.50567         0.08687
H          10.05369         3.49252        -0.51753
H           6.01550         3.44124         1.15674
H           6.09725         3.41208        -0.98525
H           6.44222         5.45648         0.88514
H          11.02219         2.51175         0.15037
H          10.77351         1.10222         0.11112
H           8.69505        -0.04416         0.10049
H           5.98705         2.39849        -0.13390
H           6.44954        -1.17662         0.09738

