%chk=CdC1C2dCC1CCNdCdCc1ccc3cc1CCdC23.chk
%NProcShared=20
# opt freq b3lyp/6-31g(2df,p)

Title Card Required 

0  1
C           0.71535        -0.23040        -0.05186
C           1.25459        -1.13284         0.78147
C           2.60519        -1.71029         0.56906
C           2.68315        -1.90236         1.91523
C           0.74156        -2.30948         2.11874
C          -0.49983        -3.69304         2.78528
C          -2.23235        -4.68885         2.77057
N          -2.08256        -6.19948         2.27622
C          -2.11178        -6.07050         1.11738
C          -1.78721        -5.32793         0.11795
C          -0.38419        -4.88860         0.09675
C           0.67111        -5.31188         0.97863
C           1.86204        -4.64632         1.06862
C           1.91571        -3.70587         0.12682
C           0.79432        -3.03515        -0.36678
C          -0.17873        -3.83048        -0.72040
C           0.59557        -3.61007        -2.00936
C           2.54181        -3.44113        -1.66147
C           2.89930        -2.85568        -0.42196
H          -0.24294        -0.66725        -0.19778
H           0.45734         0.79704         0.19196
H           3.60358        -1.06765         1.57262
H           0.43404        -1.49407         2.75921
H          -0.43873        -3.83168         3.90963
H          -0.10816        -4.74303         2.79022
H          -2.38719        -4.77332         3.87839
H          -3.39194        -4.87957         2.92223
H          -2.56650        -4.72140        -0.35244
H           0.50141        -6.04530         1.75391
H           2.61213        -4.66486         1.84971
H           1.22045        -2.07675        -1.25201
H          -0.12040        -2.50978        -1.97568
H          -0.03375        -3.87802        -2.84797
H           3.49041        -4.11202        -1.28631

