%chk=CdC1CCCqOrdCCdCCdCCdC1CC1dCqOCrCC1.chk
%NProcShared=20
# opt freq b3lyp/6-31g(2df,p)

Title Card Required 

0  1
C           2.02334         0.19255        -0.11612
C           3.94154         0.57972        -0.16946
C           3.03462         1.59397        -0.28720
C           4.38652         1.28904        -0.24930
C           5.03239         2.70071        -0.42061
O           4.50557         3.79182        -0.55418
C           6.23118         2.68096        -0.40828
C           6.70513         3.54278        -0.49151
C           8.36556         1.93985        -0.28755
C           8.25400         4.05022        -0.58313
C           9.74725         4.07830        -0.58973
C           7.87057         3.00040        -0.51198
C           6.19146         1.26196        -0.27466
C           4.52854        -0.68049        -0.00932
C           3.69649        -2.86475         0.22809
C           4.77234        -3.69972         0.56047
O           5.74319        -2.90503         0.71192
C           7.06097        -3.30684         0.89907
C           4.64054        -5.24589         0.56095
C           3.20027        -4.99375         0.32284
H           0.60970         0.87421        -0.19997
H           0.69375        -0.77523         0.00082
H           2.80136         2.03000         0.60037
H           2.80132         1.80502        -1.25323
H           4.97383         0.40436        -1.23812
H           4.97380         0.66679         0.91955
H           3.62497         3.56864        -0.52689
H           7.36268         1.21390        -0.23939
H           6.84759         4.67428        -0.66050
H           9.49083         2.49208        -0.39527
H           8.91136         5.60046        -0.77334
H          11.31709         4.02317        -0.58350
H           9.49053         4.11600        -0.60083
H           3.05657        -1.61839        -0.38480
H           3.05733        -1.50171         0.57740
H           7.72074        -2.43584         0.99133
H           7.39388        -3.89273         0.05440
H           7.14262        -3.88866         1.80534
H           4.91208        -5.74482         1.49841
H           5.24916        -5.85247        -0.12786
H           2.58208        -5.59364         1.14445
H           2.70324        -5.69958        -0.48978

