%chk=CdC1CdCCdCC2dCCdCCdCCdC2NdC1.chk
%NProcShared=20
# opt freq b3lyp/6-31g(2df,p)

Title Card Required 

0  1
C           2.12559        -0.10942        -0.23493
C           3.47239         0.33176        -0.55066
C           3.10718         1.70273        -0.48393
C           4.20587         2.22853         0.05332
C           4.81131         3.31226        -0.43752
C           6.01170         3.05381         0.05415
C           7.09215         3.67095        -0.43549
C           7.05245         4.85295         0.14859
C           7.74694         6.08150         0.25009
C           7.87576         6.90271        -0.77842
C           7.44667         6.46581        -2.08852
C           7.67797         5.25038        -2.69453
C           8.25334         3.65969        -2.31583
C           7.61750         2.67446        -1.35312
N           6.74589         1.10747        -1.20204
C           5.40568         0.28160        -0.88335
H           1.26745         0.66049        -0.17626
H           1.45817        -0.96089         0.00623
H           2.27319         2.30289        -0.71063
H           4.79375         1.50326         0.60764
H           4.48038         4.09210        -1.10399
H           6.41650         2.20508         0.61219
H           6.05804         5.07398         0.58538
H           7.99225         6.37221         1.26100
H           8.30212         7.89854        -0.60939
H           6.81242         7.24521        -2.57230
H           7.48914         5.32026        -3.76553
H           9.32191         4.14985        -2.15319
H           5.62884        -0.78391        -0.41275

