%chk=CdC1CdCSCC2dCC2dCCdCCdCS1.chk
%NProcShared=20
# opt freq b3lyp/6-31g(2df,p)

Title Card Required 

0  1
C           1.16054         0.23224         0.59468
C           1.96683         0.56527         1.64611
C           3.38298         0.58509         1.70870
C           4.56894         0.39560         1.11044
S           5.67963         0.77332         2.30304
C           7.38503         0.73474         2.18117
C           7.86726         1.14882         3.48851
C           8.94705         1.36323         4.16544
C           7.75720         1.60454         4.92731
C           6.45201         1.68566         5.18342
C           5.42418         2.00201         6.18219
C           4.17156         1.84043         5.67207
C           2.76301         1.91531         5.90846
C           1.73720         1.63299         5.01710
S           1.13750         1.09848         3.32961
H           0.09613         0.29008         0.77733
H           1.30086        -0.10075        -0.45661
H           3.48083         0.91139         2.73892
H           4.87968         0.08417         0.12722
H           7.67908         1.44402         1.41008
H           7.67908        -0.28913         1.95903
H           9.95411         1.27547         3.88834
H           5.83114         1.42814         4.37036
H           5.73331         2.31720         7.17728
H           4.10122         1.51747         4.65243
H           2.56466         2.24560         6.95119
H           0.80822         1.80690         5.56605

