%chk=CdC1CdCCdCCdCCqCrdCqCrCdC1.chk
%NProcShared=20
# opt freq b3lyp/6-31g(2df,p)

Title Card Required 

0  1
C           2.30175        -0.18925         0.27688
C           4.16067        -0.55580         0.84364
C           2.99783        -0.91336         1.44188
C           4.32629        -0.94153         1.48870
C           4.93601        -1.58047         2.51355
C           6.29079        -1.71347         2.73098
C           6.60211        -2.35961         3.78446
C           6.92606        -1.68654         2.76549
C           8.21237        -2.48628         3.97342
C           8.56220        -3.45088         5.52374
C           9.81570        -2.30929         3.69814
C          11.42793        -2.10109         3.34478
C           8.28278        -1.69267         2.62297
C           6.51376        -0.88683         1.34855
H           0.76214        -0.48069         0.74570
H           0.92652         0.30114        -0.51266
H           2.39896        -1.32997         2.11118
H           5.39245        -0.44671         0.70088
H           4.45832        -2.01610         3.21512
H           7.61734        -1.04830         1.66542
H           6.59036        -2.84976         4.54553
H           8.61478        -1.06218         1.73765
H           7.53684        -3.46706         5.54915
H           8.88750        -3.03159         6.52745
H           8.88750        -4.53695         5.59152
H          10.88578        -1.63805         2.60692
H          12.10744        -2.85143         2.87801
H          12.10765        -1.34391         3.81506
H           9.53317        -2.30882         3.65588
H           6.22270        -0.03277         0.02396

