%chk=CdC1CdCCdCCdCqNCdNrCdCS1.chk
%NProcShared=20
# opt freq b3lyp/6-31g(2df,p)

Title Card Required 

0  1
C           2.37755        -0.08346        -0.00712
C           4.10670        -0.07925        -0.13817
C           3.15633        -0.03574        -1.49559
C           4.09877        -0.01072        -2.27607
C           4.61856         0.02690        -3.44942
C           5.85357         0.03198        -3.60815
C           6.90620         0.05801        -4.42022
C           7.94106         0.02109        -3.26872
N           9.61288        -0.01404        -2.17262
C           9.27322        -0.05479        -0.90143
N           9.69961        -0.09183         0.25425
C           8.77453         0.05498        -4.32543
C           8.03603         0.00495        -2.76410
S           6.39541        -0.05518        -0.88911
H           1.23872        -0.05874        -0.77796
H           1.32561        -0.10802         0.75913
H           2.29216        -0.01402        -2.17318
H           4.81172        -0.03115        -1.63870
H           4.11504         0.05337        -4.27535
H           6.24070         0.00290        -2.70083
H           6.67470         0.09095        -5.44711
H          10.58263        -0.00049        -2.59510
H           8.28298        -0.05445        -0.91182
H          10.62690        -0.08056        -0.09736
H           8.74048         0.09391        -5.53994
H           9.42367         0.03233        -3.61879

