%chk=CdCc1cc2cccnccccccc1-2.chk
%NProcShared=20
# opt freq b3lyp/6-31g(2df,p)

Title Card Required 

0  1
C           2.55942         0.69929         0.63362
C           4.36309         1.45578         1.44157
C           6.29167         2.65218         2.71933
C           5.62477         1.50703         1.49631
C           6.95216         2.34238         2.38847
C           7.59254         1.57260         1.56634
C           7.93981         2.42079         2.47220
C           9.29150         2.48218         2.53777
N           9.89971         3.27515         3.38468
C          10.96722         2.99302         3.08336
C          11.74605         3.66577         3.80187
C          13.05283         4.04595         4.20790
C          11.62129         4.87584         5.09423
C          12.92914         4.57497         4.77290
C          10.78402         4.29905         4.47821
C           8.28858         3.51981         3.64598
H           1.26071        -0.17742        -0.30270
H           0.85734         0.69473         0.62876
H           3.63326         0.33268         0.24208
H           5.29370         0.42481         0.34049
H           7.36247         0.94467         0.89569
H           6.88724         3.44824         3.56954
H           9.63955         1.87454         1.88881
H          11.71421         2.68178         2.75095
H          10.34058         4.87520         5.09354
H          13.82132         3.54337         3.67114
H          12.74876         5.82561         6.10859
H          14.76681         4.61291         4.81342
H          12.71169         4.97618         5.20139

