%chk=CdCCqdCrSCqOOrS[SH]d[SH]SOC.chk
%NProcShared=20
# opt freq b3lyp/6-31g(2df,p)

Title Card Required 

0  1
C           1.05936        -0.15795        -0.09795
C           2.39590        -0.03103         0.01691
C           3.11405         0.94729         0.85215
C           2.41521         1.89991         1.49776
S           4.88031         0.87348         0.86377
C           5.53447         2.01651         2.19404
O           5.25070         1.54534         3.52614
O           3.87346         1.87750         3.85949
S           7.44281         2.12202         2.04529
S           8.01994         3.57083         3.40023
S           9.87426         3.33712         3.53243
S          10.35666         4.86735         4.81622
O          12.03404         4.80378         4.80876
C          12.65534         5.70639         5.73564
H           0.60875        -0.86823        -0.78472
H           0.35034         0.44279         0.46188
H           3.00424        -0.67932        -0.61459
H           1.33453         1.89019         1.55027
H           2.86700         2.71729         2.03017
H           5.15603         3.03027         2.02104
H           3.78022         1.25104         4.59972
H           7.64563         3.02716         4.53905
H          10.27804         3.85152         2.39033
H          13.74715         5.62256         5.65698
H          12.38166         5.46740         6.77018
H          12.39165         6.74722         5.51269

