%chk=CdCC1dCNdC2CdC2CdCCdCO1.chk
%NProcShared=20
# opt freq b3lyp/6-31g(2df,p)

Title Card Required 

0  1
C           1.02663        -0.21949         0.09331
C           2.31256         0.08754         0.03110
C           3.67728        -0.32786         0.11464
C           4.34324        -1.45784         0.34469
N           4.82373        -2.71301         0.59865
C           6.09124        -2.68925         0.59398
C           7.37633        -3.12352         0.68201
C           7.58368        -1.83736         0.42128
C           7.28260        -0.44853         0.13975
C           7.61437         0.81812        -0.11707
C           6.59584         1.87653        -0.33141
C           5.30452         1.81749        -0.32100
O           4.37347         0.91374        -0.13500
H           0.38595         0.65317        -0.08358
H           0.53198        -1.15422         0.28281
H           2.36860         1.15457        -0.18523
H           5.21274        -1.00686         0.25293
H           7.81037        -4.07784         0.87547
H           6.30502        -0.17766         0.08483
H           8.64544         1.13427        -0.18111
H           5.25377         2.60908        -0.48002
H           6.44443         2.81306        -0.52117

