%chk=CdCC1NC2CdC1NdNCdCCdCCdCCdCCC2C.chk
%NProcShared=20
# opt freq b3lyp/6-31g(2df,p)

Title Card Required 

0  1
C           0.77491         0.10138         0.19760
C           1.72643         0.03762         1.11204
C           1.51014        -0.43679         3.01399
N           2.68297        -1.59754         2.04167
C           1.79169        -2.65325         2.12153
C           0.89282        -1.64524         3.47476
C           0.10543        -0.99842         4.63446
N          -1.18875        -0.94988         6.09230
N          -2.39987        -1.18339         7.50648
C          -3.42324        -1.86993         8.96572
C          -2.61387        -2.40919         9.91966
C          -2.37817        -3.42612         8.86855
C          -1.41518        -3.12409         7.99851
C          -1.17979        -3.78268         6.78049
C          -0.18906        -3.42876         5.97567
C           0.23478        -4.27515         4.91381
C           1.35728        -4.10106         4.22821
C           1.71900        -4.81155         2.97305
C           2.74252        -3.99152         2.24877
C           3.26926        -4.90675         1.04432
H           0.59512         0.41824        -0.83805
H           0.07987        -0.39692         0.76905
H           2.64252         0.24916         0.14232
H           2.65057        -0.08262         2.84724
H           3.74179        -1.86787         1.59741
H           1.40771        -2.83709         1.07409
H           0.62019        -2.63168         3.33164
H          -4.22747        -2.86298         9.86724
H          -2.18326        -1.42024        10.13386
H          -3.16317        -4.17161         8.61420
H          -0.87760        -2.17780         8.19180
H          -1.71990        -4.68450         6.63840
H           0.33356        -2.50213         6.19326
H          -0.28100        -5.18500         4.72058
H           1.93911        -3.19227         4.44798
H           0.88220        -4.96955         2.26834
H           2.12241        -5.73251         3.32472
H           3.66176        -3.81798         2.82804
H           2.47501        -5.19117         0.34573
H           3.66687        -5.87230         1.44087
H           4.09853        -4.48006         0.46301

