%chk=CdCCqdCrC1CCdCCdCOCdCCdC2NdC21.chk
%NProcShared=20
# opt freq b3lyp/6-31g(2df,p)

Title Card Required 

0  1
C           1.68032         0.19383         0.13775
C           3.33517         0.43030         0.25514
C           4.80306         1.36816         1.26592
C           3.32534         1.38696         2.02027
C           6.80362         2.06677         1.80067
C           5.65203         1.70225         2.79752
C           7.00581         1.08791         2.81828
C           7.43914         1.60151         3.94600
C           8.77765         1.18305         3.99700
C           9.42455         1.83863         4.97656
O          10.79925         1.56226         5.10471
C          11.71411         2.26622         6.04697
C          12.97423         2.54721         5.55342
C          12.09558         3.67176         4.87647
C          10.74929         3.22488         3.67484
N           9.67817         3.81072         3.25140
C           8.88290         2.89663         2.63596
H           0.85918        -0.37764        -0.74457
H           0.69355         0.47403         0.71866
H           3.29477        -0.27713        -0.68811
H           1.99070         1.15193         1.98439
H           3.10054         1.73682         3.01192
H           6.40049         0.78514         1.22479
H           5.03088         0.81815         3.29656
H           4.99153         2.62135         2.59189
H           7.68033         0.46372         1.73924
H           6.81791         2.42043         4.38182
H           9.31382         0.97928         2.85296
H           9.05653         2.86517         5.32911
H          11.07641         3.29040         6.39869
H          13.69858         2.39099         4.72051
H          12.75839         4.07261         6.25025

