%chk=CdCCdCCd[SH]c1ccccc2[nH]n1CdC2.chk
%NProcShared=20
# opt freq b3lyp/6-31g(2df,p)

Title Card Required 

0  1
C           1.02922        -0.03023        -0.12032
C           2.39202        -0.04489        -0.17160
C           3.30503        -0.25919        -1.44232
C           4.74522        -0.25331        -1.61462
C           5.80864        -0.30975        -3.20679
S           8.01816        -0.43574        -4.08914
C          10.04819         0.13731        -5.29225
C           9.75177        -1.01773        -4.68075
C           9.26845        -1.53778        -6.02104
C          10.36140        -2.07465        -6.47829
C          10.84236        -2.15929        -7.78887
C          12.18929        -2.00037        -7.62396
N          12.06692        -0.68586        -8.20615
N          11.65809        -0.07394        -6.53303
C          13.32369        -0.57607        -6.72973
C          13.16833        -1.83060        -6.35003
H           0.45243         0.13546         0.81032
H           0.39877        -0.18189        -0.99329
H           2.86993         0.13155         0.79503
H           2.60060        -0.39750        -2.27685
H           5.15723        -0.10620        -0.59627
H           4.95725        -0.62716        -3.87507
H           7.96715        -1.19685        -2.78779
H          10.13676        -0.82246        -3.60373
H           8.42460        -1.16814        -6.68989
H          11.14621        -1.89029        -5.67460
H          10.31738        -1.60121        -8.67207
H          12.37532        -1.38366        -9.12658
H          14.65605        -0.91008        -6.84194
H          13.36582        -1.23106        -5.35558

