%chk=CdCC1dCd[SH]C2dCSCdCCdCNdCCdC2S1.chk
%NProcShared=20
# opt freq b3lyp/6-31g(2df,p)

Title Card Required 

0  1
C           1.74085        -0.29749         0.47095
C           3.39259        -0.69642         1.04767
C           4.91621        -1.18227         2.50582
C           5.33116        -0.33038         1.62193
S           6.82850        -0.34699         1.89531
C           7.97859        -1.57693         3.52409
C           8.75147        -1.42797         2.46297
S           9.66330        -2.71847         2.37900
C          10.84538        -2.68898         3.48914
C          11.05511        -3.93299         4.00800
C          12.45247        -3.98403         4.14796
C          12.79795        -4.96415         5.09555
N          13.95870        -4.37262         5.15650
C          13.03356        -3.63813         6.14647
C          10.92379        -2.80092         5.74950
C           9.25420        -2.25357         4.98994
S           6.81803        -1.99638         3.95540
H           0.84071        -0.05224        -0.72379
H           0.64003        -0.17245         0.96121
H           3.23757        -0.22072        -0.37759
H           6.73217         0.95513         1.69757
H           8.91741        -0.56916         1.90241
H          11.36591        -1.81554         3.20621
H          10.47119        -4.35253         5.16223
H          13.15105        -2.88669         4.11037
H          12.58923        -5.26422         6.49063
H          14.08407        -4.72555         6.79155
H          12.51867        -2.95835         6.10689

