%chk=CdCc1cccscc2cqccnnn1rCdCSCdN2.chk
%NProcShared=20
# opt freq b3lyp/6-31g(2df,p)

Title Card Required 

0  1
C           1.27904        -0.07158        -0.06554
C           2.78957        -0.07675        -0.20734
C           4.34686        -0.12084        -1.41606
C           5.38350        -0.09651        -0.74825
C           5.48082        -0.16849        -2.72187
C           6.77434        -0.18218        -3.09713
S           7.68863        -0.23169        -4.45458
C           9.46228        -0.23075        -4.44104
C          10.42258        -0.27646        -5.65872
C          11.72094        -0.25369        -5.05731
C          12.18042        -0.20850        -3.81834
C          11.44190        -0.15142        -2.25482
N          10.02995        -0.11882        -1.36094
N           8.08023        -0.10209        -0.90158
N           6.29723        -0.10527        -0.98915
C          12.77238        -0.28948        -6.03827
C          14.05276        -0.30044        -6.33902
S          14.68970        -0.37943        -8.50420
C          13.47482        -0.34233        -7.48715
N          11.50583        -0.32389        -6.99250
H           0.60231        -0.03583         0.91444
H           0.55134        -0.10166        -0.89001
H           3.01181        -0.03603         0.90878
H           4.91568        -0.06318         0.16449
H           4.69756        -0.19790        -3.52819
H           7.34327        -0.15286        -2.29368
H           9.44180        -0.19157        -3.35416
H          13.27106        -0.21121        -3.89295
H          10.62668        -0.16901        -2.73611
H          12.31051        -0.35706        -7.89085
H          14.50952        -0.26790        -5.44693
H          15.09723        -0.33962        -7.41277

