%chk=CdCCdCN1NS[SH]dCCSCCdCCdCCqCrS1.chk
%NProcShared=20
# opt freq b3lyp/6-31g(2df,p)

Title Card Required 

0  1
C           1.28938         0.00905         0.04449
C           3.09877         0.34062         0.59289
C           4.66918         1.24345         2.10301
C           6.40095         1.98643         3.37265
N           8.13217         2.95801         4.96664
N           7.25153         1.81231         3.14290
S           8.15958         2.67525         3.72991
S           9.64660         1.97894         3.37070
C          10.10755         2.90502         4.78056
C          11.50274         3.06230         5.04418
S          12.37300         3.85324         6.33057
C          13.74794         4.08063         6.71392
C          13.92976         4.70285         7.72983
C          15.04961         5.00313         8.22337
C          14.36898         5.49498         9.02711
C          15.19213         5.94148         9.76495
C          12.98977         5.40827         8.91220
C          15.29729         6.24168        10.25943
S          10.41414         4.19592         6.95689
H           0.55459        -0.52659        -0.83284
H           0.51724         0.41924         0.71671
H           2.98749        -0.48562        -0.76476
H           2.94234         1.13598         1.89233
H           5.76018         1.08395         1.83257
H           7.09417         1.79832         1.53715
H           9.82495         2.78499         2.41957
H           9.40217         3.31890         5.46076
H          11.85911         3.62375         4.24527
H          11.85886         2.09438         5.17932
H          13.94582         4.74173         6.02439
H          13.94570         3.16565         6.98663
H          12.38898         4.84511         7.96165
H          15.92207         4.85799         7.98651
H          13.32178         6.13740        10.07902
H          16.90773         5.87183         9.64725
H          14.31620         6.23015        10.23951
H          17.12481         6.50917        10.69163
H          16.73258         6.46048        11.45262
H          16.73199         7.20808        10.99566

