%chk=CdCC1dCqCCrOC2dCC2dCCdNNc2ccccc2CN1.chk
%NProcShared=20
# opt freq b3lyp/6-31g(2df,p)

Title Card Required 

0  1
C           1.15209         0.25375         0.17002
C           2.35352        -0.20413         0.57991
C           3.84810         0.09707         1.11972
C           4.50791         0.71105         0.05248
C           5.11147        -0.47172        -0.57383
C           4.34635        -1.78638        -0.55919
O           5.13680         2.03347        -0.04106
C           6.46687         2.35207        -0.32925
C           7.38389         3.16150        -0.55788
C           7.88826         1.85592        -0.18893
C           7.79814         0.50627        -0.25224
C           8.14867        -1.04176        -0.10847
N           7.31528        -2.04457        -0.36043
N           7.67191        -3.39432        -0.13202
C           6.67673        -4.32309         0.34296
C           5.70840        -4.99801        -0.40439
C           4.83968        -6.02503         0.11089
C           5.10512        -6.57312         1.33905
C           5.88859        -5.71918         2.15209
C           6.24412        -4.31880         1.63652
C           5.86793        -2.60588         2.09768
N           4.65789        -1.20488         1.99931
H           0.46007        -0.57864        -0.08812
H           0.64586         1.20535         0.07097
H           2.29887        -1.16994         0.09551
H           5.84699        -0.58789         0.21810
H           5.56814        -0.33748        -1.55401
H           3.71673        -2.01231         0.30277
H           5.00183        -2.60675        -0.38512
H           3.70104        -1.81215        -1.41921
H           7.65971         4.21817        -0.70502
H           6.87764         0.41209        -0.71341
H           9.13507        -1.27027         0.27966
H           8.48472        -3.49336         0.48697
H           5.47998        -4.59057        -1.37615
H           3.96965        -6.36723        -0.44170
H           4.77061        -7.60251         1.57353
H           6.71310        -6.48194         2.44332
H           6.83120        -2.15007         1.84081
H           6.03701        -2.71895         3.17334
H           5.43885        -0.53253         2.15050

