%chk=CdCCqdCdC1C2dCqCSrC12rCdCC.chk
%NProcShared=20
# opt freq b3lyp/6-31g(2df,p)

Title Card Required 

0  1
C           1.00748         0.02682        -0.08853
C           2.34769         0.11049        -0.07418
C           3.11786         1.35873        -0.00972
C           2.45325         2.48929         0.02036
C           1.67480         3.47507        -0.19365
C           1.74443         4.87209        -0.26834
C           0.68986         5.57197         0.09978
C          -0.01381         6.83113         0.09245
S          -1.81211         6.60606         0.18700
C           0.58045         4.18130         0.37143
C           4.57915         1.39161        -0.04779
C           5.32956         2.50733        -0.03591
C           6.82015         2.51998        -0.03945
H           0.49633        -0.92859        -0.11769
H           0.37479         0.90878        -0.06627
H           2.91982        -0.81538        -0.10728
H           0.21899         7.39438        -0.81956
H           0.30222         7.43011         0.94731
H          -1.97392         5.89380        -0.93891
H          -0.30395         3.80782        -0.13337
H           5.07719         0.42362        -0.08061
H           4.85679         3.48700        -0.01242
H           7.23916         1.51016        -0.05973
H           7.18582         3.02660         0.85923
H           7.18568         3.06474        -0.91484

