%chk=CdCC1dCCdCc2ncnn2CdCCdCCdC1.chk
%NProcShared=20
# opt freq b3lyp/6-31g(2df,p)

Title Card Required 

0  1
C           1.41945         0.05991        -0.25110
C           2.73648        -0.16805        -0.50218
C           3.90373         0.73583        -0.84822
C           4.51609         1.28944         0.22972
C           5.22987         2.57088         0.11564
C           6.56631         2.68704         0.16722
C           7.22986         3.93303        -0.05943
N           6.95506         5.07049         0.53673
C           7.93528         5.89721         0.11348
N           8.79722         5.39395        -0.76186
N           8.34856         4.11766        -0.94706
C           8.91594         3.25380        -1.90509
C           8.33529         2.06783        -2.16762
C           8.51561         0.91034        -2.93524
C           7.56557        -0.04475        -2.70800
C           6.05315        -0.00273        -2.26849
C           4.88164         0.71119        -2.06506
H           0.77416        -0.77826         0.06035
H           0.84651         0.98639        -0.30462
H           3.03326        -1.18303        -0.25080
H           5.18462         0.53103         0.66876
H           4.59903         3.43992        -0.06633
H           7.15847         1.78890         0.32850
H           8.02827         6.91141         0.47159
H           9.78526         3.61863        -2.43081
H           7.52121         1.83760        -1.54016
H           9.53810         0.73286        -3.29557
H           8.01915        -1.02071        -2.50355
H           5.94775         0.02570        -3.39435
H           4.68487         1.62370        -2.64036

