%chk=CdCC1dCNdCCNCqdCrCdC1.chk
%NProcShared=20
# opt freq b3lyp/6-31g(2df,p)

Title Card Required 

0  1
C           1.23982        -0.00280        -0.26002
C           2.68871         0.12295        -0.60898
C           3.91999         0.68158        -2.02214
C           4.66119         0.37580        -1.00557
N           5.70531         0.13372        -1.58551
C           6.64755         0.82906        -2.06882
C           6.60647         1.52025        -4.30147
N           8.15523         1.04176        -3.15608
C           9.08339         1.53234        -4.44645
C           9.12375         1.99945        -5.71615
C           7.61866         1.09938        -3.32613
C           5.58449         1.07279        -3.22008
H           0.59492        -0.36244         0.71979
H           0.45909         0.25484        -0.96097
H           2.98259        -0.30535         0.56429
H           4.92425        -0.03208        -0.08179
H           7.46290         0.43429        -1.43528
H           6.87038         2.60234        -4.16950
H           6.86723         0.54110        -4.91845
H           9.00457         0.79508        -2.41420
H           8.13804         2.11020        -6.01904
H           9.92654         2.26854        -6.44972
H           9.27406         1.31937        -3.86411
H           4.26583         1.19066        -3.50708

