%chk=CdCdC1CCqdOrNdCCdCdCC2CCqOCrCdCdC12.chk
%NProcShared=20
# opt freq b3lyp/6-31g(2df,p)

Title Card Required 

0  1
C           3.40295        -0.13464        -0.22459
C           5.35527        -0.29473        -0.50089
C           7.30666        -0.09426        -0.64645
C           5.47786         0.96900        -0.51003
C           6.48093         1.13110         0.36252
O           6.47919        -0.00647         1.10952
N           7.03768         2.18354        -0.36678
C           8.28538         2.00904        -0.39260
C           9.25735         2.97395        -0.72391
C          10.51062         2.80656        -0.65144
C          11.71570         2.48296        -0.60317
C          11.59613         1.01566        -0.50560
C          13.65221         1.46358        -0.55187
C          13.48246         0.23543        -0.31094
O          13.95497        -0.81328        -1.79007
C          12.65644        -1.34384        -2.04954
C          13.54086        -0.92071        -0.33861
C          11.60573        -0.55545        -0.36557
C           9.73343        -0.10308        -0.52067
H           1.84827         0.43948        -0.33254
H           1.86887        -0.51833         0.24286
H           4.54122         1.82506         0.36142
H           4.47743         1.52943        -1.28382
H           8.61745         1.07775        -0.03250
H           8.87957         3.92185        -0.97795
H          12.55529         3.23649        -0.54163
H          11.86182         0.88119         0.63195
H          14.23289         1.62112         0.42679
H          14.32874         1.59661        -1.41420
H          13.98328        -0.67195         0.55311
H          12.25298        -1.68414        -2.89076
H          12.37762        -0.27300        -2.12305
H          12.23546        -1.95065        -1.12121
H          15.12554        -0.16994        -0.41167

