%chk=CdCN1CdCCdCCdC2CdCCdCCdC2S1.chk
%NProcShared=20
# opt freq b3lyp/6-31g(2df,p)

Title Card Required 

0  1
C           1.47451         0.55425         0.65632
C           2.75355         0.91211         1.09195
N           4.16324         1.54887         1.91333
C           4.97622         0.92848         0.99669
C           6.13996         0.80689         1.59310
C           7.39910         0.76564         1.29850
C           7.79736         1.34098         2.38927
C           9.01640         1.77643         2.64088
C           9.02531         2.58437         3.66939
C          10.61333         2.61936         3.82976
C          11.59669         3.14994         4.55272
C          11.20735         3.97357         5.61023
C           9.89246         4.23938         5.91686
C           8.19350         3.91603         5.39551
C           7.45948         3.17619         4.24951
S           5.26809         2.77453         3.45101
H           1.23702        -0.10829        -0.28848
H           0.47984         0.75817         1.02246
H           3.18671         0.26864         0.22992
H           4.87436         0.37398         0.07658
H           5.81258         0.77840         2.61729
H           7.94997         0.54609         0.42535
H           7.15322         1.51024         3.23805
H           9.80147         1.36137         2.06318
H          11.16086         1.99172         3.10938
H          12.68266         2.96483         4.34934
H          12.14012         4.34749         6.12676
H          10.00469         4.89640         6.79892
H           7.78706         4.48779         6.24128

