%chk=CdCqOrC1dCCdC2CdCCdCCdCSCdS21.chk
%NProcShared=20
# opt freq b3lyp/6-31g(2df,p)

Title Card Required 

0  1
C           1.07301        -0.19960         0.05837
C           2.38060        -0.42805         0.30198
O           3.22570         0.68499         0.35000
C           2.97357        -1.84493         0.26784
C           2.85951        -2.52367        -0.89693
C           3.93653        -3.41798        -1.13937
C           5.01242        -3.18049        -0.33350
C           6.30521        -3.58113        -0.33055
C           6.66987        -4.80016        -0.79784
C           7.92579        -5.22563        -0.30537
C           8.25203        -6.51037        -0.51885
C           8.54950        -7.17771         0.74765
C           7.30706        -7.41175         1.26757
S           6.26424        -6.05980         2.20323
C           4.78521        -4.69091         1.80033
S           4.62012        -2.53671         1.25972
H           0.61351         0.79128         0.02570
H           0.39571        -1.02041        -0.14245
H           2.68332         1.50236         0.26870
H           2.22875        -2.22699        -1.74073
H           3.93967        -4.07374        -1.98657
H           6.96144        -3.07151         0.37657
H           5.89836        -5.45588        -1.18216
H           8.25677        -4.75368         0.63620
H           7.62666        -7.05109        -1.23201
H           9.37362        -6.65144         1.24996
H           6.92737        -8.31677         0.74125
H           4.46716        -4.52281         2.85071

