%chk=CdCqCrC1dCCdCCdCCdCCdCCdC1.chk
%NProcShared=20
# opt freq b3lyp/6-31g(2df,p)

Title Card Required 

0  1
C           1.57058         0.38601         0.20062
C           3.30455         1.04955         0.74618
C           3.17985        -0.64315        -0.64578
C           4.81420         2.44924         1.89627
C           4.66195         1.17586         0.85013
C           5.50818         2.03667         1.55902
C           6.76101         1.97594         1.50894
C           7.67643         2.66659         2.07671
C           8.83036         2.71847         2.11991
C           9.20378         3.60210         2.82687
C          10.65109         3.64550         2.88020
C           9.93207         4.46623         3.56955
C          11.01650         4.90205         3.92383
C           8.71544         4.70630         3.77248
C           6.70512         3.81772         3.04107
H           0.56447        -0.57040        -0.58590
H           0.46961         0.78332         0.52761
H           2.37387        -1.51728        -1.36486
H           3.70954        -1.54344        -0.23832
H           3.70954        -0.41693        -1.60775
H           5.04271         0.37610         0.19286
H           5.83952         2.99833         2.35017
H           7.13336         1.30767         0.95896
H           7.93136         3.71322         2.93811
H           9.38475         2.20557         1.69773
H           7.63270         4.56601         3.60907
H          11.52309         3.27920         2.58111
H          10.14385         5.94351         4.78529
H          12.69928         4.58078         3.65230
H          10.53767         5.26866         4.19572
H           5.02147         3.74452         2.96831

