%chk=CdCqCCCrNC1dCqCqCrdSrCdCdCdC1.chk
%NProcShared=20
# opt freq b3lyp/6-31g(2df,p)

Title Card Required 

0  1
C           1.19639         0.02455        -0.15280
C           2.55222         0.00628        -0.07973
C           3.22016        -0.31439         1.23949
C           2.25974        -0.60822         2.40486
C           3.01102        -0.92734         3.67543
N           3.35128         0.29810        -1.20280
C           4.72494         0.54564        -1.48742
C           5.29281         1.23020        -2.55859
C           4.47731         1.18527        -3.88018
C           5.26554         1.32572        -5.15920
S           2.79268         1.00672        -4.11500
C           6.96048         1.14990        -2.62785
C           7.27833        -0.10679        -2.80512
C           6.71849        -0.65171        -1.87591
C           5.79922        -0.37029        -0.95869
H           0.53664        -0.18506         0.69225
H           0.64317         0.25547        -1.05623
H           3.86093         0.52983         1.51921
H           3.85914        -1.19118         1.08894
H           1.61367        -1.46205         2.16043
H           1.61138         0.25794         2.59287
H           3.64047        -1.80967         3.53284
H           2.30142        -1.12990         4.48291
H           3.64078        -0.08251         3.96613
H           2.73916         0.52158        -1.99433
H           6.33520         1.28941        -4.98126
H           5.02393         2.31593        -5.54710
H           5.02751         0.54570        -5.89447
H           7.59505         1.40039        -1.70367
H           6.12765        -0.11488         0.04907

