%chk=CdNCCCd[SH]CN1CdC1Cd[SH]N.chk
%NProcShared=20
# opt freq b3lyp/6-31g(2df,p)

Title Card Required 

0  1
C           1.06206        -0.06253         0.06542
N           2.34399         0.00993         0.08217
C           2.96278        -1.27955        -0.17870
C           4.45219        -1.12005        -0.13240
C           5.01255        -2.48420        -0.37959
S           6.72055        -2.46705        -0.35721
C           7.37632        -4.05355        -0.71831
N           8.75842        -3.81219        -0.76822
C           9.90822        -4.36660        -0.81013
C           9.92155        -3.03651        -0.52838
C           9.49167        -1.61909        -0.31463
S          10.29972        -0.09512         0.16860
N           8.87734         0.83436         0.28091
H           0.47067         0.84414         0.25049
H           0.50474        -0.99631        -0.12637
H           2.69037        -1.66325        -1.17039
H           2.67800        -2.02388         0.57496
H           4.80287        -0.73020         0.83423
H           4.80858        -0.41195        -0.89708
H           4.39583        -3.34608        -0.63983
H           7.11170        -2.22473         0.87424
H           7.03055        -4.39957        -1.69876
H           7.08397        -4.78865         0.03915
H          10.26882        -5.35036        -0.97590
H           8.50930        -1.33162        -0.61037
H          10.64236         0.28598        -1.04469
H           8.26942         0.85399         1.10319
H           8.32430         1.14767        -0.52432

