%chk=CdNNdCC1dCSC2dCNdCqCCrN1N2C.chk
%NProcShared=20
# opt freq b3lyp/6-31g(2df,p)

Title Card Required 

0  1
C           1.41092         0.14812        -0.09597
N           2.79745         0.26172        -0.09926
N           3.94016         1.63777        -0.65040
C           5.52996         1.76787        -0.35450
C           7.29706         2.79376        -0.51503
C           6.69519         2.53807        -1.66947
S           7.08335         3.83837        -2.65718
C           8.82473         3.07281        -2.76852
C           9.65357         4.08519        -3.14647
N          10.87192         3.86996        -2.62870
C          10.60496         4.58014        -1.51301
C          12.38360         5.32236        -2.48963
C          13.39423         6.72010        -3.46821
N           9.15882         3.53098        -0.79569
N           9.47033         2.40025        -1.54612
C           9.17350         1.14816        -0.75514
H           0.73364        -0.76553         0.35837
H           0.61120         0.85553        -0.47368
H           5.53550         0.63813        -0.14387
H           6.90840         1.42639        -1.55647
H           9.31153         5.20002        -3.07847
H          13.02593         4.61470        -3.25821
H          13.21285         5.42227        -1.76421
H          13.31599         6.84655        -4.60277
H          14.60469         6.68378        -3.51697
H          13.34698         7.74719        -3.05779
H           9.93511         0.46882        -0.34964
H           8.54049         0.55612        -1.40222
H           8.67421         1.38998         0.21773

