%chk=CN1CdCCdCCdCc2ccccccccc2-c2ccccc21.chk
%NProcShared=20
# opt freq b3lyp/6-31g(2df,p)

Title Card Required 

0  1
C           2.58661        -0.49279         1.59754
N           4.40475        -1.30910         3.24127
C           3.54862        -0.88772         1.46610
C           4.70490        -0.65947         0.99400
C           5.57860        -1.36389         1.87125
C           6.82083        -1.30445         2.11585
C           7.75478        -1.88131         3.02263
C           9.06271        -2.16121         3.48507
C          10.21501        -2.73029         5.02007
C          11.06397        -2.54122         4.13141
C          11.58767        -3.21562         4.95828
C          12.93636        -3.12521         5.07768
C          13.61681        -3.60914         5.88900
C          15.18714        -3.73441         6.26701
C          14.69201        -3.91287         7.69082
C          15.62788        -4.56772         7.16501
C          13.55735        -4.45633         7.23389
C          11.06757        -3.62034         6.47145
C           8.69370        -2.99630         5.43554
C           7.07671        -3.86068         4.68870
C           5.18692        -3.74556         4.29560
C           4.39010        -3.16691         5.22968
C           5.30148        -2.71782         5.93661
C           6.41130        -2.09345         4.56359
H           1.59204         0.00653         0.11351
H           1.10556         0.36658         1.07074
H           1.19192        -0.94415         0.49708
H           2.84893        -1.62147         2.20209
H           5.04530        -0.12373         0.20057
H           5.38084        -2.15486         2.77885
H           7.19063        -0.80070         1.33672
H           7.52452        -2.50314         3.69902
H           9.34060        -1.55621         2.55719
H          11.52516        -2.10312         3.46352
H          10.14547        -3.94395         5.69895
H          13.69317        -2.78963         4.57494
H          12.37556        -4.27482         6.94456
H          15.91901        -3.43628         5.59562
H          15.01353        -5.19813         8.79215
H          17.37812        -4.25267         6.90379
H          15.33968        -5.04423         7.68514
H           7.07607        -4.09865         3.46881
H           4.66938        -3.43977         3.27706
H           3.42206        -2.82912         5.25787
H           4.72677        -3.00472         7.26005

