%chk=CN1CdCC2dCCdCCdCCdCCdNC2dN1.chk
%NProcShared=20
# opt freq b3lyp/6-31g(2df,p)

Title Card Required 

0  1
C           1.34867        -0.24282        -0.02023
N           3.19783        -0.55256         0.11767
C           3.50283         0.86963        -0.01941
C           4.77428         0.94831         0.31340
C           5.76901        -0.42979         0.76248
C           6.71288         0.12059         1.42978
C           7.44204        -0.86286         1.95937
C           8.56534        -0.91434         2.53090
C           8.87581        -2.06144         3.21635
C          10.06388        -2.21873         3.71341
C          10.13884        -3.65057         4.16453
C          11.07853        -3.64300         3.26777
C           9.43136        -3.83892         2.07609
N           7.77209        -3.37316         1.40644
C           6.19063        -2.33711         0.88544
N           4.46769        -1.98413         0.53818
H           0.89784         0.91507        -0.05688
H           0.77315        -0.56103         0.85569
H           0.82235        -0.55885        -0.96112
H           2.79595         1.86871        -0.30215
H           5.07327         2.04412         0.31290
H           6.90521         1.13148         1.59088
H           7.17459        -1.84145         2.13391
H           8.99789        -0.00899         2.65698
H           8.25588        -3.02425         3.32934
H          10.82899        -1.42084         3.66142
H           9.74224        -4.82041         3.91669
H          12.03372        -3.10263         4.18358
H          10.47495        -4.90069         2.41056

