%chk=CN1CdC2[C]CdCCdCCdCCqdN2rN1.chk
%NProcShared=20
# opt freq b3lyp/6-31g(2df,p)

Title Card Required 

0  1
C           1.29626         0.27595        -0.01839
N           2.79987         0.08757        -0.02147
C           3.17587        -1.20497        -0.01704
C           4.43680        -1.44188        -0.01116
C           4.90551        -2.75329        -0.02496
C           6.25484        -2.85299        -0.08288
C           7.12583        -3.84033        -0.07521
C           8.46749        -3.42105        -0.00741
C           9.33611        -2.44228        -0.19000
C           8.79021        -0.77715        -0.08934
C           7.52694         0.17989        -0.05939
C           5.67809         0.74854        -0.01788
N           5.47661        -0.56316        -0.01420
N           4.06717         1.09852        -0.02556
H           0.79373        -0.73172        -0.01944
H           0.86666         0.72085        -0.92421
H           0.86897         0.71789         0.88992
H           2.45446        -2.02049        -0.01927
H           6.73445        -1.88610        -0.09274
H           6.86580        -4.85790        -0.04212
H           8.09841        -2.55321         0.50687
H          10.23782        -3.12015        -0.03084
H           9.88009        -0.48750        -0.06083
H           7.86790         1.23649        -0.03821
H           3.72509         2.06658        -0.01182

