%chk=CN1CdCC2dCCdCNCdC2CdCC1qNrC1CC1.chk
%NProcShared=20
# opt freq b3lyp/6-31g(2df,p)

Title Card Required 

0  1
C           1.22853         0.02084        -0.38013
N           2.66875        -0.03506        -0.48129
C           3.17385         0.93614        -1.25853
C           4.41737         1.38325        -1.05772
C           5.21034         1.68139        -2.14626
C           4.90867         2.90024        -2.60522
C           5.58557         3.69862        -3.53233
C           6.72769         3.34070        -4.12302
N           7.44446         2.16615        -4.02000
C           7.20128         0.96950        -3.28524
C           6.19561         0.64386        -2.40582
C           5.94119        -0.78976        -1.59040
C           5.00291        -1.31950        -0.59993
C           3.56834        -0.79569         0.42179
N           4.16980        -0.05779         1.58024
C           2.59331        -1.68371         1.53716
C           0.99609        -1.73195         1.59708
C           1.80025        -2.96033         1.36305
H           0.77786         0.74635        -1.06710
H           0.91068         0.37839         0.60627
H           0.80981        -0.92587        -0.72085
H           2.59211         1.20221        -2.12885
H           5.06641         1.08090        -0.27007
H           4.04302         3.38121        -2.15003
H           5.13253         4.67374        -3.67452
H           7.16621         4.08865        -4.78042
H           8.27260         2.17015        -4.61673
H           8.00830         0.28228        -3.53782
H           6.73915        -1.46373        -1.95591
H           5.21288        -2.37920        -0.40563
H           4.76607         0.70467         1.31829
H           4.70100        -0.66343         2.19318
H           2.89231        -1.46694         2.57468
H           0.20863        -1.65248         0.85245
H           0.48616        -1.52541         2.54326
H           1.78108        -3.38709         0.37359
H           1.65946        -3.67055         2.17332

