%chk=CN1NdNCdCc2cccsnncc21.chk
%NProcShared=20
# opt freq b3lyp/6-31g(2df,p)

Title Card Required 

0  1
C           3.42971         0.59745         0.65362
N           5.68666         1.11448         1.23280
N           3.84850         1.37343         1.52297
N           4.96698         0.94348         1.04132
C           5.38494         2.16832         2.41351
C           7.01363         1.86194         2.07027
C           6.95195         2.78420         3.10347
C           8.15260         2.68964         2.99760
C           8.80205         3.68481         4.11244
C          10.09133         3.67323         4.09940
S          11.44717         4.72963         5.28291
N          12.73200         4.08612         4.56200
N          11.59313         3.28572         3.66581
C           9.65717         2.54184         2.83196
C           7.68961         2.01866         2.24579
H           1.76023         0.79249         0.87214
H           2.02491        -0.33120         0.49533
H           2.02490         0.54520        -0.28696
H           4.47034         2.50699         2.79291
H           8.35935         1.19029         1.31780
H           9.24260         1.76024         1.95640
H           8.67194         4.32449         4.82906
H          10.95028         2.52474         2.81281
H          11.31336         3.16630         3.53099

