%chk=CNC1dCdCC2dCCdC1CC1dNCdC2C1.chk
%NProcShared=20
# opt freq b3lyp/6-31g(2df,p)

Title Card Required 

0  1
C           1.72158        -0.35642         0.53776
N           3.27803        -1.00623         0.95551
C           4.53236        -0.87417         2.13390
C           5.23178        -0.12968         1.37528
C           6.21438        -0.21365         0.46795
C           6.92356        -1.44934         0.85435
C           7.69499        -0.95646         1.94617
C           6.99627        -0.94675         3.31052
C           5.92759        -1.75856         3.12195
C           7.14147        -3.24094         2.91997
C           6.34548        -4.33754         2.33191
N           6.75558        -5.01039         1.29439
C           6.57494        -3.99716         0.35375
C           5.91848        -2.91039         0.81796
C           5.05317        -3.73887         2.05466
H           1.63496         0.11870        -0.50475
H           1.22915         0.42029         1.15699
H           1.00873        -1.18921         0.35845
H           3.69035        -0.38437         0.20543
H           6.73074         0.71160         0.33303
H           8.26414        -0.01504         1.93290
H           7.76020        -1.16809         4.08775
H           7.98539        -3.65959         3.53118
H           7.91442        -3.05650         2.08989
H           6.55649        -4.12501        -0.70504
H           4.42337        -4.55229         1.71293
H           4.62851        -3.36333         3.00266

