%chk=CNC1dCCdCCdCCdCCdCCCqNCrS1.chk
%NProcShared=20
# opt freq b3lyp/6-31g(2df,p)

Title Card Required 

0  1
C           1.96834         0.50835         0.22450
N           3.99517         1.44580         0.79495
C           5.83667         2.66807         1.70943
C           4.99508         1.33728         0.64681
C           5.68297         2.54319         0.91615
C           7.31850         2.31353         0.79526
C           8.55514         3.43938         0.73751
C           9.79115         3.42046         1.31975
C           9.76395         4.82828         1.95796
C          10.84228         4.63055         1.53606
C          10.50822         6.44623         2.27007
C          11.73714         5.83399         2.18158
C          12.67361         6.83140         3.06664
C          11.27934         5.16009         3.14914
N          13.48701         6.25826         3.09869
C          15.69960         7.10567         3.15879
S           8.26418         3.94036         2.70596
H           0.90213        -0.75425        -0.35503
H           0.71983         0.85339        -0.62104
H           0.71591         0.14663         0.99805
H           3.43233         0.11317         0.05333
H           5.15737         0.26003         0.07558
H           4.39747         3.38049         1.37936
H           7.23306         1.32910         0.54627
H           8.39265         4.92743         1.13420
H           9.43622         2.50168         1.12680
H           9.09496         5.68951         2.50039
H          11.53715         3.80390         1.55460
H          11.04929         7.12939         3.04840
H          13.02523         4.81942         1.94290
H          13.21594         7.36172         4.29051
H          13.29944         8.02755         2.41914
H          12.96851         5.68924         2.77039
H          14.46436         7.30324         3.71930
H          17.15763         7.52571         2.40235
H          17.19265         6.89836         3.85990
H          17.00388         8.20879         3.56937

