%chk=CNCCdC1CdCCdCCdC2CdCCdC21.chk
%NProcShared=20
# opt freq b3lyp/6-31g(2df,p)

Title Card Required 

0  1
C           1.12739        -0.05642        -0.11153
N           2.91654        -0.27187        -0.14430
C           3.87482        -2.00392        -0.39252
C           5.75813        -3.07973        -0.86566
C           7.35826        -4.08485        -1.29891
C           7.06071        -2.61721        -0.52555
C           7.58335        -3.81513        -0.40325
C           9.03353        -3.09189        -0.46575
C           9.67220        -4.15567        -0.46973
C          10.95122        -4.34346        -0.73205
C          10.85871        -5.57300        -1.00648
C          12.61239        -5.92504        -1.04785
C          12.41070        -7.18288        -1.22905
C          10.43103        -6.90660        -1.35644
C           8.94074        -5.78210        -1.41464
H           0.70834         1.01723         0.06973
H           0.65295        -0.60719         0.72107
H           0.64732        -0.33360        -1.05321
H           2.92887         0.26857         0.78676
H           2.97950        -1.89019        -1.26078
H           2.97845        -2.17338         0.46497
H           5.53862        -1.64756        -0.39788
H           7.38205        -1.56426        -0.34920
H           6.51159        -5.04670        -0.60715
H           9.56134        -2.20452        -0.46552
H           8.67849        -4.99608        -0.05156
H          11.76480        -3.73517        -0.66521
H          13.63274        -5.35436        -0.91865
H          13.74557        -7.75691        -1.32858
H          11.10285        -8.20001        -1.44961

