%chk=CNCCqNrC1dCCdCCdCCdCCdCCdC2NC21.chk
%NProcShared=20
# opt freq b3lyp/6-31g(2df,p)

Title Card Required 

0  1
C           1.07307         0.02193        -0.10833
N           3.06055        -0.38747        -0.49999
C           4.69787        -1.73899        -1.84306
C           7.13876        -2.97814        -2.95860
N           5.79510        -1.90840        -0.94524
C           9.51437        -4.58271        -4.68048
C           7.91032        -3.30877        -3.56067
C           6.93222        -3.92685        -4.06381
C           8.50206        -3.18610        -3.28075
C           9.22427        -3.64560        -3.79106
C          10.30744        -3.58497        -3.74406
C          10.61470        -5.15076        -5.32917
C          11.57024        -5.05735        -5.23126
C          11.27922        -6.53449        -6.72035
C          13.30082        -6.38239        -6.56753
C          13.31121        -7.85320        -8.06347
C          13.91520        -7.17865        -7.31452
N          14.82994        -6.77932        -6.97190
C          12.19057        -5.85171        -5.98854
H           0.68837         0.75778         0.63791
H           0.68131        -0.93746         0.17713
H           0.68139         0.31039        -1.06095
H           2.86780        -0.22064         0.82335
H           2.93312        -0.80855        -2.03587
H           2.92679        -1.90735        -0.94381
H           5.99008        -1.45519        -2.18234
H           4.75611        -2.22599         0.39296
H           4.94704        -0.91025         0.47305
H           7.40004        -2.02395        -2.20237
H           6.05889        -3.70902        -3.84910
H           8.99849        -2.59383        -2.73289
H           8.06748        -4.73997        -4.90361
H          10.90143        -3.93358        -4.09216
H           9.83761        -6.00957        -6.18406
H          12.61238        -5.00995        -5.17865
H          11.67424        -7.23592        -7.42033
H          14.45429        -6.04947        -6.22137
H          13.58066        -8.47201        -8.66664
H          16.75397        -7.08313        -7.26558
H          13.90032        -6.97562        -7.15790

