%chk=CNdc1cc2cqcs1rCdCCdCCdC2.chk
%NProcShared=20
# opt freq b3lyp/6-31g(2df,p)

Title Card Required 

0  1
C           1.07668         0.00159        -0.10268
N           2.65321        -0.10987        -0.04430
C           3.15868        -0.89848         0.88090
C           4.84257        -1.35992         1.41515
C           5.19217        -2.28701         2.51200
C           4.03691        -2.87394         2.89979
C           2.79072        -2.29657         3.05392
S           1.93203        -1.58849         1.88729
C           4.05278        -4.27347         2.99054
C           3.54224        -4.98547         3.97937
C           4.54495        -5.98178         4.49092
C           4.80346        -5.30688         5.60463
C           5.94918        -4.15391         5.01426
C           6.23056        -3.21981         3.72704
H           0.68095         0.71450        -0.83856
H           0.63042         0.33415         0.85857
H           0.61989        -0.97373        -0.35636
H           5.36536        -0.70939         0.70217
H           2.17993        -2.82134         3.69129
H           4.93722        -4.70113         2.52384
H           2.91510        -4.39689         4.71009
H           5.56266        -6.17769         4.05049
H           3.80705        -5.38636         6.14803
H           6.64074        -4.90531         5.57682
H           7.09175        -3.52228         3.10692

