%chk=CNdC1CdC[N]CdNC2dCqCdCC2rS1.chk
%NProcShared=20
# opt freq b3lyp/6-31g(2df,p)

Title Card Required 

0  2
C           1.63866        -0.58756        -0.51782
N           3.14164        -1.21201        -0.99861
C           4.01304        -2.13748        -1.78374
C           4.99758        -1.12582        -1.00605
C           6.04435        -1.79856        -0.61008
N           7.31337        -1.43041        -0.64690
C           7.84743        -2.53246        -1.04727
N           8.91784        -2.53238        -1.76017
C           8.81202        -3.75477        -2.27656
C           7.68980        -4.24587        -2.92782
C           8.68398        -5.58103        -3.48824
C           9.92391        -5.71394        -2.84770
C          10.05461        -4.62079        -1.90055
S           5.55163        -3.40638        -2.84116
H           1.60360         0.40721         0.09665
H           1.06854        -1.21023         0.21368
H           0.96472        -0.27569        -1.33975
H           4.89719        -0.12139        -0.56836
H           5.69821        -2.83038        -0.56969
H           7.24225        -3.48569        -0.94362
H           8.92785        -5.97044        -4.49707
H          10.88639        -6.26717        -2.98848
H          11.03771        -4.10478        -1.94585
H          10.04382        -5.07535        -0.89547

