%chk=CNdC1ONC2dCCdCSC2dCCdCdC1OC.chk
%NProcShared=20
# opt freq b3lyp/6-31g(2df,p)

Title Card Required 

0  1
C           1.20667        -0.06939        -0.03096
N           2.57519        -0.51255        -0.27966
C           3.44350        -0.62645         0.66250
O           4.59602        -1.38118         0.40048
N           5.34691        -2.00179         1.48530
C           6.77712        -1.83508         1.63540
C           7.52911        -2.91757         1.84582
C           8.96406        -2.87675         1.87685
C           9.71177        -1.76524         1.81808
S           9.11315        -0.14075         1.75689
C           7.42743        -0.45571         1.63532
C           6.47150         0.43644         1.72831
C           5.59044         1.52410         1.90807
C           4.29377         1.04266         2.17142
C           3.33982        -0.00846         2.01389
O           2.16593        -0.46267         2.83515
C           1.18200        -1.75095         2.75071
H           0.84033         0.65290        -0.76758
H           0.93787         0.32894         0.95487
H           0.61282        -0.97879        -0.16154
H           4.82001        -2.34973         2.28458
H           7.02458        -3.87730         1.87736
H           9.44787        -3.84677         1.89732
H          10.79276        -1.86631         1.80925
H           5.66303        -0.12826         1.44429
H           6.30635         2.37641         2.02252
H           0.13867        -1.57779         2.36613
H           0.95503        -1.98880         3.80956
H           1.51680        -2.73544         2.33771

