%chk=CNdc1ccccccc2cq[nH]1rdCCd2.chk
%NProcShared=20
# opt freq b3lyp/6-31g(2df,p)

Title Card Required 

0  1
C           1.41174         0.18264         0.09273
N           3.26151         0.92833         0.64489
C           4.50860         2.03000         1.46066
C           4.75545         0.80307         0.55214
C           5.51296         1.56610         1.11714
C           6.93179         1.59839         1.14106
C           7.68454         2.47955         1.79353
C           9.01768         2.51951         1.82312
C           8.59708         3.84717         2.80605
C          10.08808         3.41922         2.48839
C           8.22411         3.78088         2.75768
N           6.16949         3.12068         2.26827
C          10.20719         4.23287         3.09183
C          11.38347         3.15611         2.29508
H           0.83249        -0.81816        -0.64834
H           0.75279         0.93350        -0.45750
H           0.75279        -0.12460         0.97145
H           5.22148         0.07909         0.01605
H           6.25311         1.98780         1.42941
H           7.44715         0.96216         0.66994
H           6.96857         3.83674         2.79850
H           9.68008         1.93821         1.39268
H           8.94352         4.95531         3.62678
H           4.72285         3.08055         2.23856
H          11.66985         4.71982         3.45240
H          11.74176         2.18705         1.57694

