%chk=CNdCqOrC1dCCdCCqdOrNdCNdC1N.chk
%NProcShared=20
# opt freq b3lyp/6-31g(2df,p)

Title Card Required 

0  1
C           1.03030        -0.05937         0.07868
N           2.54287        -0.04308         0.08948
C           3.29376         0.79515         0.78899
O           2.51421         1.73096         1.59886
C           5.26287         0.90969         0.94203
C           5.45151         1.86760         1.72522
C           6.92046         2.08708         1.95744
C           7.34531         3.03225         2.72125
C           7.94006         2.44893         1.49931
O           9.26478         1.48505         0.76832
N           8.98097         3.20684         2.73285
C          10.15459         2.91268         2.64133
N           8.81419         1.45886         2.22787
C           7.35246         0.86090         0.85902
N           6.00469        -0.31581        -0.05841
H           0.63536        -0.84553        -0.58849
H           0.62666         0.89090        -0.27812
H           0.62679        -0.25773         1.07462
H           1.50613         1.70952         1.58089
H           4.71970         2.42950         2.19224
H           8.22483         1.03244         1.42246
H           6.70912         3.60226         3.18017
H          11.49510         2.79922         2.47397
H           5.58194        -1.25188        -0.93473
H           4.64408        -0.62323        -0.40381

