%chk=CNdC1CdCC2dCCdNC2dCdCNdCNdC1.chk
%NProcShared=20
# opt freq b3lyp/6-31g(2df,p)

Title Card Required 

0  1
C           1.28606        -0.55113        -0.24100
N           2.61255        -1.13130        -0.35794
C           3.56683        -1.97700        -0.58389
C           4.80794        -1.39910        -0.02881
C           5.48653        -2.28323         0.69606
C           6.90936        -2.23313         0.70235
C           7.66062        -1.24244         1.17432
C           8.99890        -1.74314         0.86004
N           9.07336        -2.87283         0.24060
C           7.76866        -3.21876         0.08643
C           7.43238        -4.34561        -0.35560
C           6.95821        -5.48400        -0.78489
N           6.65515        -5.53284        -2.09104
C           5.35271        -5.45248        -2.24884
N           4.34065        -4.75075        -1.52609
C           3.68116        -3.69058        -0.97764
H           1.21620         0.54384        -0.46931
H           0.89203        -0.54832         0.79665
H           0.54343        -1.01587        -0.88407
H           5.09944        -0.36400        -0.20130
H           5.03948        -3.23639         0.96477
H           7.36814        -0.33107         1.65037
H           9.87808        -1.17503         1.16296
H           6.27649        -6.03079        -0.14585
H           5.13395        -6.45271        -2.75268
H           2.88280        -4.15001        -0.38488

