%chk=CNNdCCCqCdNr[N]CdCCCdCCdCNN.chk
%NProcShared=20
# opt freq b3lyp/6-31g(2df,p)

Title Card Required 

0  2
C           0.98605         0.07596         0.04492
N           2.42503         0.23348         0.06469
N           3.03593         0.79130        -1.00580
C           4.32604         0.90661        -0.87574
C           5.19283         1.57566        -1.92263
C           6.72420         1.38662        -1.71587
C           7.10664        -0.07639        -1.90974
N           6.74349        -1.05660        -1.13466
N           7.41341         2.20504        -2.74244
C           8.77162         2.25076        -2.74112
C           9.54916         2.92544        -3.62171
C          11.06128         2.95321        -3.66231
C          11.61773         3.81830        -4.78232
C          12.93473         3.99650        -5.02074
C          13.43751         4.83581        -6.09005
C          14.74648         5.04958        -6.34030
N          15.25173         5.86996        -7.31504
N          16.61457         5.97673        -7.58002
H           0.65735        -0.56760         0.86836
H           0.61341        -0.35832        -0.88897
H           0.52096         1.05518         0.18961
H           2.93178        -0.48926         0.57424
H           4.82186         0.57396         0.04876
H           4.94998         2.64700        -1.86751
H           4.87724         1.22775        -2.91369
H           6.98698         1.69113        -0.69401
H           7.75239        -0.33014        -2.76415
H           6.17418        -0.71217        -0.36657
H           9.33546         1.69069        -1.99030
H           9.02101         3.49287        -4.38494
H          11.43169         1.93035        -3.80147
H          11.43733         3.33699        -2.70678
H          10.89208         4.31628        -5.41968
H          13.66195         3.50116        -4.38313
H          12.70004         5.33191        -6.71322
H          15.50109         4.56421        -5.73003
H          14.58083         6.25688        -7.98316
H          17.17784         5.47335        -6.89220
H          16.90464         6.95483        -7.49656

