%chk=CNqCrC1dCCdCCdCCdC1CqCCCC1CC1rCNN.chk
%NProcShared=20
# opt freq b3lyp/6-31g(2df,p)

Title Card Required 

0  1
C           1.09798        -0.06857        -0.04501
N           2.56616        -0.23393         0.12436
C           3.21047        -1.29909        -0.70006
C           3.27667         0.62001         1.03368
C           2.78241         0.57562         2.28312
C           3.12696         0.92722         3.63198
C           4.18089         1.41853         4.25153
C           5.38942         2.01688         3.78424
C           5.74636         2.40762         2.58153
C           5.17717         2.33119         1.25962
C           4.32709         1.56071         0.53851
C           4.57723         1.74825        -1.03177
C           5.87534         0.94439        -1.40394
C           7.13574         1.57310        -0.81614
C           8.41523         0.89234        -1.22471
C           9.56338         1.63417        -0.61284
C          10.87105         1.57256        -1.33260
C          10.11256         2.87336        -1.26991
C           3.36905         1.46827        -1.97366
N           3.55936         1.11739        -3.39669
N           2.42161         0.25627        -3.83392
H           0.71190        -0.58619        -0.92933
H           0.83862         0.99335        -0.16021
H           0.54693        -0.45229         0.81914
H           2.47930        -1.75620        -1.38053
H           3.72049        -2.04740        -0.10121
H           3.99214        -0.94695        -1.38594
H           1.84612         0.02268         2.37059
H           2.36067         0.54905         4.31702
H           4.15781         1.36131         5.34227
H           6.08860         2.24552         4.59455
H           6.72056         2.91747         2.55616
H           5.77324         3.03310         0.66880
H           4.80227         2.81125        -1.21664
H           6.01923         0.90199        -2.48579
H           5.82044        -0.08810        -1.04231
H           7.13621         1.48702         0.27011
H           7.16935         2.63629        -1.08469
H           8.49253         0.86323        -2.31559
H           8.41815        -0.13905        -0.85461
H           9.53973         1.63047         0.47339
H          10.88117         1.03323        -2.27347
H          11.75837         1.43413        -0.73050
H           9.61350         3.23542        -2.16214
H          10.50356         3.66478        -0.63958
H           2.51180         2.12409        -1.77577
H           2.98393         0.55242        -1.66330
H           4.40648         0.54498        -3.47328
H           1.53137         0.61809        -3.47756
H           2.48894        -0.69862        -3.46046

