%chk=COC1dCCdCCdCCdCCdCd[SH]CdCNdC1O.chk
%NProcShared=20
# opt freq b3lyp/6-31g(2df,p)

Title Card Required 

0  1
C           1.60899         0.22610        -0.13135
O           3.56526         0.98313        -0.28967
C           5.47536         1.91302        -0.43059
C           4.79602         0.68671        -0.89877
C           4.94374         1.23906        -2.20964
C           6.45012         1.37581        -2.25515
C           7.23390         2.87315        -2.89667
C           8.57963         3.01966        -2.78700
C           9.43574         4.15991        -3.16682
C          10.75399         4.23216        -3.24361
C          11.60532         5.21000        -3.84417
C          12.90720         5.25708        -3.88817
S          14.48395         5.17495        -3.83117
C          13.52026         4.02675        -2.16728
C          11.83427         3.51345        -1.48753
N           9.65627         3.05822        -1.12054
C           7.70246         2.76206        -0.84884
O           5.68245         3.07210        -1.09132
H           0.78521        -0.85726         0.52324
H           0.73442        -0.13191        -1.08810
H           0.70803         0.89324         0.35572
H           5.13961         0.00564        -0.15700
H           4.78971         2.50963        -2.60137
H           7.05104         1.07974        -1.12536
H           6.74118         3.85860        -2.89511
H           8.99901         2.06039        -2.08215
H           8.91114         4.92037        -3.62242
H          11.14008         3.32962        -2.88740
H          11.06176         5.95531        -4.37095
H          14.98652         6.45049        -3.66168
H          14.44252         3.49208        -1.28258
H          13.39673         3.67566        -2.19545
H           4.23996         2.77033        -1.30614

