%chk=COC1dCCdCCdCSCdCNdNC12CC2.chk
%NProcShared=20
# opt freq b3lyp/6-31g(2df,p)

Title Card Required 

0  1
C           1.22811        -0.09929         0.08806
O           2.87266        -0.60638         0.47079
C           4.24413        -1.41113         1.31844
C           5.05814        -0.57845         0.81901
C           5.54027        -0.61974         2.12208
C           6.80645        -0.90444         2.02032
C           7.29076        -1.24835         3.27997
C           8.60983        -1.26331         3.37842
S           8.97349        -1.96059         5.14456
C          10.85935        -2.12184         4.46006
C          10.60476        -3.45433         4.42353
N           9.00152        -3.53687         3.32544
N           7.26655        -3.43659         3.03773
C           5.27967        -2.80229         2.29490
C           3.42489        -2.13310         2.74227
C           3.56840        -3.49402         2.18797
H           0.86981         0.54023        -0.87991
H           0.71947         0.49689         0.87960
H           0.67636        -1.01398        -0.11238
H           5.01615         0.12505         0.04126
H           4.96772        -1.10020         3.17448
H           7.30763        -0.74293         1.09509
H           6.74421        -2.03829         4.04084
H           9.27160        -1.42268         2.43643
H          11.47111        -1.97282         3.41712
H          11.50865        -3.73169         5.62432
H           2.27155        -1.71589         1.87422
H           2.05851        -1.76771         2.55172
H           2.73952        -3.31434         1.23186
H           2.46494        -3.67702         2.55737

