%chk=COC1dCC2dCC3dC2CdCCdCC3dC1.chk
%NProcShared=20
# opt freq b3lyp/6-31g(2df,p)

Title Card Required 

0  1
C           1.39297        -0.07089        -0.15888
O           3.21499        -0.34564        -0.50532
C           4.13083        -1.53017        -1.56527
C           5.72249        -2.22708        -1.60736
C           7.13120        -3.40882        -2.50267
C           7.84266        -2.51135        -1.49887
C           8.62418        -2.56311        -2.64073
C           9.06916        -4.01532        -3.10043
C          11.04399        -3.71028        -3.52692
C          10.63167        -4.26857        -4.56429
C          10.56786        -2.74681        -3.36923
C           8.98752        -2.04510        -3.50021
C           7.29164        -1.32005        -2.79014
C           5.58220        -1.84955        -2.65980
H           0.95132         0.71933         0.65233
H           0.84651        -0.98200         0.19676
H           0.83664         0.31038        -1.05391
H           5.72407        -1.00427        -0.96493
H           7.47498        -1.15726        -0.93326
H          12.59569        -3.75434        -3.87844
H          11.35343        -4.96424        -5.20524
H          11.66292        -2.39252        -2.55990
H           8.11419        -3.01614        -4.25813
H           4.10648        -2.08770        -2.48968

