%chk=COC12CdCCdCNdCCdCNdCC1dC2.chk
%NProcShared=20
# opt freq b3lyp/6-31g(2df,p)

Title Card Required 

0  1
C           1.61545         0.27465         0.47440
O           3.19074         0.51298         1.51442
C           4.75117         1.48662         2.21002
C           5.12181         1.27322         0.89272
C           5.48278         2.52531         0.82033
C           6.87855         2.25729         0.99120
C           7.55906         3.18279         1.63462
N           8.86855         2.92556         1.71870
C           9.44095         4.02424         2.09278
C          10.95855         4.05870         2.19755
C          10.88858         4.56969         3.42353
N           9.87518         3.43279         4.10290
C           8.28044         2.75728         3.98299
C           6.38106         2.14085         3.43953
C           5.04841         1.63488         3.62089
H           1.14564        -0.73508        -0.31160
H           0.96978         1.02014        -0.17521
H           0.84686        -0.07508         1.23237
H           5.13860         0.27097         0.36409
H           4.87709         3.24872         1.63172
H           7.27662         1.20470         0.92690
H           7.03720         3.95070         2.31400
H           8.81485         4.81329         2.83163
H          11.49518         3.06265         2.25908
H          10.90713         5.65187         3.87261
H           9.01421         3.87492         4.60697
H           3.90962         1.25083         3.43672

