%chk=COc1cccc2c1dCCqdNrNd2.chk
%NProcShared=20
# opt freq b3lyp/6-31g(2df,p)

Title Card Required 

0  1
C           1.06997        -0.04883         0.06774
O           2.49034        -0.01202         0.02079
C           3.11796        -0.20875         1.22321
C           2.79941        -1.11359         2.16976
C           3.57473        -1.22815         3.39757
C           4.63934        -0.45072         3.66936
C           5.04330         0.56798         2.67301
C           4.24315         0.63890         1.44914
C           4.79715         1.61643         0.73691
C           5.91751         2.11557         1.53507
N           6.72025         3.06214         1.22187
N           6.01030         1.42442         2.71576
H           0.70324         0.09331        -0.95242
H           0.69203         0.77279         0.68551
H           0.69343        -1.00937         0.42811
H           1.97992        -1.81127         2.03939
H           3.25589        -1.99180         4.10314
H           5.21238        -0.54090         4.58332
H           4.49645         1.98887        -0.22282
H           6.46918         3.43738         0.30304

