%chk=COC1dCCdCCdC2CdCNdCCdCCdCC21.chk
%NProcShared=20
# opt freq b3lyp/6-31g(2df,p)

Title Card Required 

0  1
C           1.18213         0.12267         0.11694
O           2.68641         0.40314         0.46192
C           3.42514        -0.46163         1.61776
C           2.99204        -1.77698         1.24563
C           3.41579        -3.12445         1.55816
C           4.52438        -3.29452         2.25041
C           5.41232        -2.26755         2.70593
C           5.75786        -1.09538         2.15485
C           7.01752        -0.48922         2.04433
C           7.88494        -0.95420         2.91884
N           8.95660        -0.18138         2.99062
C           9.69447        -0.45303         3.99217
C          10.47622         0.70083         4.45544
C           9.52491         0.57594         5.38652
C           7.77063         0.99143         4.87134
C           6.34513         0.91724         3.95649
C           5.08865         0.16659         2.43543
H           0.77932         0.85511        -0.62141
H           0.62595         0.27996         1.03881
H           0.83855        -0.85200        -0.32617
H           2.18625        -2.02204         0.49138
H           2.85040        -4.03888         1.27844
H           4.81828        -4.29452         2.54182
H           6.21924        -2.79150         3.15755
H           7.08235         0.64507         1.81941
H           7.57180        -1.65591         3.71320
H           9.47506        -1.31661         4.74410
H          10.52843         1.73327         4.10578
H          10.25758        -0.09881         6.06312
H           8.57622         1.76452         5.57549
H           5.64551         1.74236         4.09609
H           5.27632         0.70829         1.44414

