%chk=COC1dCqNrC2dCNdNCCdNNCCCC21.chk
%NProcShared=20
# opt freq b3lyp/6-31g(2df,p)

Title Card Required 

0  1
C           0.99295        -0.11485         0.15734
O           2.33937        -0.70804         0.61740
C           2.76952        -1.46232         1.92741
C           3.89841        -0.71878         2.33574
N           4.72688         0.51110         2.23532
C           4.08515        -1.95332         3.01811
C           4.83809        -2.47171         3.86025
N           4.76151        -3.79647         3.91373
N           5.10233        -4.40035         4.89423
C           4.56295        -5.81826         4.86575
C           5.49823        -6.25689         5.84309
N           5.41410        -7.51260         5.80968
N           5.81930        -7.90282         6.99750
C           4.30867        -8.21883         7.31851
C           3.55386        -6.27492         6.71128
C           3.00314        -4.54562         5.01880
C           2.93722        -3.27442         3.18397
H           0.67732         0.56342        -0.76675
H           0.54417         0.42686         0.98256
H           0.49371        -1.03296        -0.07536
H           4.70412         1.45357         1.70264
H           5.45804         0.70711         2.95240
H           5.41433        -1.81180         4.34147
H           4.41856        -6.44408         4.03045
H           3.24245        -6.27857         5.15960
H           5.75379        -5.61794         6.75955
H           6.16600        -7.29170         7.87737
H           5.18795        -9.45930         7.51653
H           4.14076        -9.01845         8.56485
H           4.46155        -6.91027         7.71460
H           4.06628        -6.64606         8.08056
H           2.24517        -3.68442         4.91406
H           2.21592        -4.78515         4.11038
H           2.84526        -3.54130         1.82028

