%chk=COC1CdCNdCCdCCqCrdCOSS1.chk
%NProcShared=20
# opt freq b3lyp/6-31g(2df,p)

Title Card Required 

0  1
C           1.59043        -0.15255        -0.62254
O           2.98497         0.18391        -1.38184
C           3.95799        -0.89030        -2.26556
C           4.84236        -1.19559        -1.12915
C           5.45710        -2.28030        -1.40902
N           6.80918        -2.30429        -1.21980
C           7.37744        -2.84457        -2.20155
C           8.80133        -2.68511        -2.26643
C           9.43572        -3.58877        -3.00542
C          10.77557        -3.35512        -3.47737
C          11.64554        -2.37263        -2.69766
C          10.50893        -3.12069        -4.77752
O           9.48876        -1.90741        -5.02286
S           7.51514        -1.94161        -5.04574
S           5.81391        -0.50584        -3.70837
H           1.41565         0.46391         0.31722
H           1.29032        -1.17806        -0.28435
H           0.77575         0.24315        -1.25259
H           3.32076        -1.77877        -2.42669
H           5.14446        -0.36953        -0.45526
H           5.06940        -2.86234        -2.27448
H           6.86956        -3.36445        -3.06541
H           9.18345        -1.75917        -1.87086
H           8.81692        -4.22186        -3.66678
H          11.09218        -1.70457        -2.03641
H          12.18505        -1.70692        -3.38014
H          12.38988        -2.88161        -2.07523
H          10.60387        -4.03481        -5.41836

