%chk=COCC1dCdCdCC2dCCdC2CqdNrCdCdN1.chk
%NProcShared=20
# opt freq b3lyp/6-31g(2df,p)

Title Card Required 

0  1
C           1.05860         0.10663        -0.01589
O           2.49884         0.15144         0.05894
C           3.05747        -0.46302        -1.10382
C           4.60474        -0.66055        -1.27208
C           4.87506        -1.46586        -2.31127
C           5.25785        -2.06937        -3.34100
C           6.08761        -2.44100        -4.32534
C           7.80640        -2.13421        -4.52328
C           8.58810        -2.61501        -5.60860
C          10.11720        -2.39009        -5.61662
C           8.67700        -1.20539        -3.42139
C           7.91700        -0.58023        -2.26296
N           6.87591        -0.06520        -2.83862
C           8.01431        -0.00431        -0.95426
C           6.74414         0.09128        -0.51376
N           5.55624         0.03252        -0.36450
H           0.63400         0.58266         0.87246
H           0.69326        -0.92863        -0.05258
H           0.68708         0.64163        -0.89996
H           2.67594         0.07280        -1.98517
H           2.63149        -1.47535        -1.14681
H           5.71486        -2.95646        -5.21595
H           8.12915        -3.23589        -6.39390
H          11.07975        -2.61720        -6.02406
H           6.68449        -0.90237        -3.33334
H           8.93179         0.55133        -0.74140

