%chk=CSc1cccc2[nH][nH]c1dNCdNCdCCdC[SH]d2.chk
%NProcShared=20
# opt freq b3lyp/6-31g(2df,p)

Title Card Required 

0  1
C           1.05851        -0.18956        -0.05018
S           2.61094        -1.18404         0.01843
C           2.80724        -3.33977         0.25533
C           4.28297        -2.41783         0.05602
C           5.54614        -2.99251         0.10465
C           6.77908        -3.35041         0.07328
C           7.28118        -4.63890         0.18295
N           6.62001        -5.99986         0.39640
N           4.60457        -6.38690         0.99972
C           2.53795        -5.41953         0.99868
N           0.80237        -5.67410         0.41811
C          -0.78731        -6.82167         0.24246
N           0.48528        -6.77648         0.13327
C           2.06642        -7.08792        -0.09551
C           3.01885        -5.72002        -0.68214
C           3.25894        -6.89889        -0.13196
C           4.08065        -5.29101        -0.20630
S           6.00323        -5.46479        -0.40116
H           0.73882         0.92163        -0.09526
H           0.64147        -0.54882         0.86010
H           0.64240        -0.61904        -0.93307
H           5.19452        -1.38736        -0.02303
H           5.13947        -3.77566         0.10840
H           7.53285        -2.74358         0.04901
H           8.01107        -5.42220         0.20670
H           5.74605        -7.12547         0.45022
H          -1.18459        -8.09031         0.25444
H           1.22499        -7.90240         0.26446
H           2.04869        -4.64689        -0.22230
H           3.70390        -7.87694         0.20971
H           3.96932        -4.31078         0.15177
H           6.33683        -6.80712        -0.91360

