%chk=CSc1cccccc2cqs1rCdCCdCS2.chk
%NProcShared=20
# opt freq b3lyp/6-31g(2df,p)

Title Card Required 

0  1
C           1.26198        -0.42562        -0.29358
S           3.16804        -1.46950        -0.96314
C           4.13531        -3.16894        -2.04137
C           5.06881        -2.10718        -1.36466
C           6.28600        -2.51453        -1.62753
C           7.54220        -2.66122        -1.72703
C           7.96364        -3.78858        -2.41099
C           9.04358        -4.44800        -2.69743
C           8.83295        -6.01732        -3.45191
C           7.47282        -5.89762        -3.97153
S           5.56587        -4.88217        -3.16857
C           9.63287        -5.82479        -4.16053
C          11.19560        -6.28408        -4.54142
C          11.52266        -7.74226        -5.66490
C          11.63659        -8.22564        -4.42877
S           9.39420        -8.06356        -4.48167
H           1.00766         0.59699         0.35739
H           0.68173        -1.09498         0.35583
H           0.68166        -0.12034        -1.17484
H           5.27283        -1.12015        -0.73512
H           5.94371        -3.29124        -2.12106
H           8.05123        -1.92580        -1.24711
H           7.28370        -4.40173        -2.81798
H           9.79660        -3.79177        -2.42313
H          10.38836        -6.60469        -4.48693
H          12.34341        -6.13126        -4.07303
H          11.74883        -9.06512        -5.86329
H          12.95874        -8.17550        -4.95001

