%chk=CSC1dCCdCCdCCdCSCdCSN1S.chk
%NProcShared=20
# opt freq b3lyp/6-31g(2df,p)

Title Card Required 

0  1
C           1.33478        -0.22881        -0.11835
S           3.49673        -1.46627        -0.25840
C           4.85923        -3.51744        -0.42500
C           5.12785        -2.03486        -0.30771
C           5.71901        -3.34225        -0.46107
C           7.00488        -3.45645        -0.46608
C           7.68798        -4.93648        -0.61496
C           8.97102        -4.88894        -0.60913
C           7.99832        -5.69460        -0.98489
C           9.80532        -5.81293        -0.81309
S          10.74249        -7.71585        -0.94687
C          12.36475        -8.27183        -0.99188
C          10.57395        -8.53877        -0.99336
S           8.24104        -7.30595        -0.52391
N           6.15860        -5.43519        -0.54790
S           3.63831        -4.72785        -0.58897
H           0.77684         0.98876         0.01278
H           0.70201        -0.60948         0.73120
H           0.70186        -0.41881        -1.03041
H           5.63257        -1.07677        -0.21280
H           5.08917        -4.78556        -0.65490
H           7.50861        -2.60346        -0.37557
H           6.73763        -6.37979        -0.74596
H           9.19506        -3.97755        -0.52547
H           7.00495        -7.30575        -1.13353
H          10.94118        -5.96848        -0.72473
H          13.28337        -7.57594        -0.91048
H          11.80655        -9.71716        -1.13395
H           1.93224        -3.88878        -0.50973

