%chk=CtCC1dCSCdCCdCCdCCqdNrNdC1.chk
%NProcShared=20
# opt freq b3lyp/6-31g(2df,p)

Title Card Required 

0  1
C           1.06823         0.05125        -0.05214
C           2.37208         0.05125        -0.05214
C           3.89208         0.05125        -0.05214
C           4.04285         0.60661         0.96702
S           4.87031         1.16474         1.99126
C           6.05768         1.60414         2.79762
C           7.08738         1.42740         2.47326
C           8.02867         2.27891         4.03590
C           9.13516         1.99304         3.51129
C          10.20763         2.74347         4.88842
C          11.83249         2.96700         5.29864
C          10.02043         2.43674         4.32554
N          11.03195         3.34405         5.99057
N           8.42932         1.45271         2.51971
C           6.45448         0.71002         1.15679
H           0.02789         0.05123        -0.05218
H           3.85388         1.06643         1.81084
H           6.10672         2.02551         3.57087
H           8.65826         0.89281         1.49222
H           7.94132         2.75003         4.90046
H          10.75998         1.83674         3.22446
H           9.67542         3.41764         6.12560
H          12.77661         2.72611         4.85657
H          10.70612         4.10545         7.38782
H           6.49367         0.03173        -0.08796

