%chk=Nc1ccc2cccqdSrcccc1-2.chk
%NProcShared=20
# opt freq b3lyp/6-31g(2df,p)

Title Card Required 

0  1
N           1.08150        -0.44330        -0.01609
C           2.45038        -0.56472        -0.07020
C           3.13776         0.61240        -0.01273
C           4.54187         0.38955        -0.03370
C           4.81902        -0.90932        -0.08994
C           6.16337        -1.39311         0.14228
C           6.09609        -2.61921         0.55071
C           6.67733        -3.98255         0.60241
S           8.29163        -4.19796         0.25595
C           5.37118        -4.97029         0.60947
C           4.71408        -4.54000        -0.50791
C           3.60168        -3.22701        -0.42307
C           3.55147        -1.78276        -0.25615
H           0.68820         0.50704         0.04085
H           0.42542        -1.20089         0.01300
H           2.76010         1.63421         0.06274
H           5.26703         1.18601         0.08968
H           7.02151        -0.78237        -0.14902
H           5.13998        -2.81953         1.02013
H           5.52859        -6.06862         0.56517
H           5.56487        -4.82971        -1.22159
H           2.67986        -3.77846        -0.21424

