%chk=NC1CdCqC2dCCdC2rCdC2CdC2CdCCdCCdCC1CO.chk
%NProcShared=20
# opt freq b3lyp/6-31g(2df,p)

Title Card Required 

0  1
N           1.13442         0.47191         0.20309
C           2.66577         0.55777         0.11214
C           2.81703        -1.16417         0.31458
C           3.92487        -1.84596        -0.02920
C           4.79854        -0.91464        -0.59359
C           4.77207         0.22232        -1.25762
C           5.59902         0.73641        -0.22268
C           5.46412        -0.34942         0.51362
C           4.59038        -3.10540         0.24524
C           5.93069        -3.14938         0.18243
C           7.03087        -3.86344         0.31481
C           7.50699        -2.66121        -0.01577
C           7.73337        -1.17467        -0.38817
C           8.56113        -0.08315        -0.70954
C           8.01598         1.35053        -0.72471
C           8.01045         2.69241        -0.77365
C           6.56496         3.44612        -0.52300
C           5.26455         3.25727         0.12403
C           3.82769         2.05768         0.65926
C           2.65299         2.98969         0.80848
O           2.76772         3.69645         2.01785
H           0.88522        -0.28331        -0.46726
H           0.66764         1.25314        -0.25365
H           2.60155         0.72533        -0.96056
H           1.96634        -1.77569         0.61451
H           4.14417         0.88785        -1.84688
H           5.63290         1.56122        -0.86387
H           5.85920        -0.80989         1.42518
H           3.98358        -3.94544         0.57103
H           7.15050        -4.89201         0.58281
H           7.58137        -0.81809         0.64175
H           9.42747         0.03532        -0.05848
H           7.32357         1.39148         0.07254
H           8.99227         3.20105        -0.70273
H           6.55277         4.29812        -1.25232
H           5.37742         4.12235         0.84684
H           4.20168         1.72885         1.64248
H           1.71293         2.46581         0.92927
H           2.54724         3.55050        -0.12414
H           2.61749         3.00840         2.70112

