%chk=NC1dCCdCCqNdCCOrdCCdc2cqdOrc2dCNdC1.chk
%NProcShared=20
# opt freq b3lyp/6-31g(2df,p)

Title Card Required 

0  1
N           2.33994        -0.17309         0.34240
C           4.24754        -0.31906         0.96576
C           3.48752         0.74402         1.40944
C           4.68310         1.21808         1.05784
C           5.40777         1.79100         1.94451
C           6.82784         1.97046         1.62054
N           7.73078         1.14755         0.38373
C           7.32766         0.15182        -0.40693
C           7.87282        -1.00994        -1.11365
O           6.82014        -1.64041        -1.85292
C           7.34649         2.47170         2.76978
C           8.64482         2.81102         2.80850
C           9.38901         3.23533         3.75890
C           9.79753         3.97133         4.77832
O           9.42072         4.88449         5.40354
C          10.54809         2.61702         3.78698
C           9.84359         1.17054         2.99875
N           8.15929         0.38967         2.24907
C           6.35208        -0.14119         1.61852
H           1.16983         0.39075         0.73521
H           1.25623        -0.58452        -0.39747
H           2.57140         1.33154         1.58158
H           5.26014         0.91114         0.19303
H           4.81975         2.09371         2.76105
H           6.32245         0.19385        -0.70231
H           8.38933        -1.69563        -0.45868
H           8.44555        -0.34207        -1.70856
H           6.26940        -2.20457        -1.27647
H           6.90541         2.81642         3.65242
H           9.21588         2.38672         1.88254
H          11.15928         2.08106         3.35828
H           5.88157        -0.81706         0.40145

