%chk=NC1dCCdCC2dCqSC1rSSCdCdC2.chk
%NProcShared=20
# opt freq b3lyp/6-31g(2df,p)

Title Card Required 

0  1
N           1.30358         0.32978         0.32728
C           2.71359         0.65494        -0.05972
C           3.16234         1.39505        -0.98867
C           4.75934         1.06599        -1.48974
C           5.85620         1.80828        -1.78595
C           7.24497         2.17356        -0.95316
C           6.72471         3.16711        -0.19866
S           5.18119         2.40681         1.05611
C           4.02744         0.41869         0.81944
S           7.62057         4.91048        -0.16957
S           9.55289         5.33283        -1.48867
C          10.66488         4.07726        -0.95387
C           9.90738         2.98516        -0.89353
C           8.89994         2.06586        -0.96051
H           0.64270         0.88183        -0.24354
H           0.94792        -0.62600         0.13795
H           2.54788         2.35427        -1.01614
H           5.22408         0.27340        -0.92899
H           5.25986         2.71102        -1.72593
H           4.02715        -0.20375         1.70819
H           4.37653        -0.43439         0.19577
H          11.79284         4.25469        -1.06818
H           9.11316         1.19766        -0.31770

