%chk=NC1dCdCCdNCdCCdCSC1dO.chk
%NProcShared=20
# opt freq b3lyp/6-31g(2df,p)

Title Card Required 

0  1
N           2.29705        -0.07326        -0.27939
C           3.74408         0.11084        -0.64036
C           3.62152         1.11870        -1.23338
C           3.74537         1.94072        -2.09177
C           4.64850         1.45225        -3.15459
N           5.28951         2.16810        -3.98719
C           6.11994         1.38234        -4.72885
C           7.19101         1.92694        -5.30751
C           8.28117         1.08620        -4.81744
C           8.53084         1.43292        -3.51506
S           7.21481         1.21659        -1.83962
C           5.60087        -0.06683        -0.96863
O           6.08356        -0.94178        -0.37897
H           1.53952         0.56786        -0.80337
H           1.80832        -0.61446         0.33422
H           3.55489         3.04055        -1.99114
H           4.83482         0.34008        -3.08437
H           6.30535         0.33365        -4.41315
H           7.21928         3.02893        -5.23870
H           9.03946         0.73125        -5.54971
H           8.88538         2.54441        -3.76468

