%chk=NC1dCdCCdCC2dNSC1dC1C[SH]dCCdCdC21.chk
%NProcShared=20
# opt freq b3lyp/6-31g(2df,p)

Title Card Required 

0  1
N           0.76811         0.44292         2.16303
C           1.49578         1.41011         3.16509
C           2.62325         1.46391         2.54591
C           3.94736         1.27646         2.42016
C           4.29182         1.12253         3.80927
C           4.72336         2.16848         4.55452
C           4.06508         2.35832         5.91845
N           3.67012         1.21375         6.47186
S           2.01871         0.65212         6.20117
C           1.44669         1.99751         4.95787
C           1.79180         3.23673         5.89452
C           1.56141         3.61675         7.67003
S           0.90204         5.48336         7.62118
C           2.30191         6.31738         8.38698
C           3.48867         6.25415         7.42488
C           3.59390         5.05893         6.66992
C           3.29698         3.81617         5.99025
H           1.22283         0.37528         1.19251
H          -0.22407         0.45717         1.91730
H           4.52090         1.79257         1.67448
H           3.61323         0.36386         4.23775
H           5.18804         3.00900         4.07922
H           2.42118         3.61368         8.43021
H           0.68965         3.29084         8.23837
H           1.46439         5.67276         6.44672
H           2.19180         7.05209         9.24026
H           3.51430         7.36720         7.11565

