%chk=NC1dCC2dCCdCCdCC2dCCdNC1.chk
%NProcShared=20
# opt freq b3lyp/6-31g(2df,p)

Title Card Required 

0  1
N           0.96199         0.37876        -0.03237
C           2.32808         0.22647         0.19072
C           3.14792         1.08012         0.85131
C           4.61455         0.78192         1.03640
C           5.33737         1.06168        -0.06041
C           6.75035         0.95894        -0.33070
C           7.73962         0.61671         0.47483
C           7.67051         0.15897         1.84242
C           6.59253        -0.06020         2.59756
C           5.17134         0.05260         2.23109
C           4.33066        -0.64807         3.02991
C           3.03768        -1.07058         2.41915
N           3.06098        -1.82202         1.35967
C           2.89091        -1.16880         0.02354
H           0.45531         0.30134         0.84859
H           0.60714        -0.39104        -0.60913
H           2.72325         1.89763         1.42595
H           4.79187         1.41544        -0.93829
H           7.00903         1.27784        -1.34382
H           8.75568         0.68834         0.07865
H           8.64779        -0.07684         2.26852
H           6.80215        -0.50179         3.57629
H           4.59861        -1.09049         3.98178
H           2.20112        -0.39358         2.70181
H           2.28260        -1.78291        -0.64718
H           3.86333        -1.11836        -0.48774

