%chk=NC1dCCdC2CdCCqdNCdNC2dOrCdC1.chk
%NProcShared=20
# opt freq b3lyp/6-31g(2df,p)

Title Card Required 

0  1
N           1.47578        -0.04501         0.03559
C           3.44107        -0.13837        -0.03062
C           3.17775        -1.14362        -0.74357
C           4.59206        -1.33407        -0.87864
C           4.39080        -2.28711        -1.55455
C           5.67943        -2.09897        -1.42112
C           7.05385        -3.05758        -2.10098
C           8.83903        -2.75607        -1.88715
N           9.76185        -2.04218        -1.38085
C           9.13801        -1.09877        -0.71175
N           7.51091        -0.88516        -0.56026
C           5.78423        -2.21033        -1.50010
O           4.45445        -3.02820        -2.08015
C           7.22735        -1.94475        -1.31174
C           5.51511        -0.61006        -0.36515
H           0.55470        -0.69588        -0.42602
H           0.57297         0.67777         0.54820
H           2.49315        -1.77710        -1.19284
H           6.49034        -0.36107        -0.18857
H           6.32568        -1.30646        -0.85906
H           6.92426        -3.83739        -2.65404
H           8.27133        -0.63568        -0.38332
H           8.44044        -2.95314        -2.02691
H           4.59196         0.37955         0.33670

