%chk=NC1dCqCdOrN2CdCCdCC2dCCdN1.chk
%NProcShared=20
# opt freq b3lyp/6-31g(2df,p)

Title Card Required 

0  1
N           1.06762         0.15136         0.16501
C           2.42188        -0.06422        -0.00474
C           2.88321        -1.31015        -0.18093
C           1.81004        -2.38374        -0.06453
O           0.57583        -2.21875        -0.00850
N           4.19258        -1.76765        -0.48389
C           4.40512        -3.10563        -1.02514
C           4.38099        -4.01888        -0.03815
C           5.57216        -3.73365         0.76971
C           6.15373        -2.45526         0.69493
C           5.31418        -1.23360         0.19183
C           5.57104         0.10983         0.13879
C           4.45249         1.14927        -0.02162
N           3.18746         1.09886        -0.05434
H           0.45874        -0.66440         0.00934
H           0.66878         1.05140        -0.01235
H           2.11628        -3.40448        -0.01947
H           5.48321        -3.13784        -1.37989
H           3.48380        -4.52441         0.30988
H           6.00104        -4.73873         0.78647
H           7.21245        -2.35542         0.44588
H           6.51916         0.63794         0.26792
H           4.82755         2.20864        -0.01671

