%chk=Nc1nnc2ncccccc-2cccc1dO.chk
%NProcShared=20
# opt freq b3lyp/6-31g(2df,p)

Title Card Required 

0  1
N           0.59711         0.12605        -0.23033
C           1.91117         0.24910        -0.39309
N           2.73851         0.93430        -1.33277
N           4.72050         1.06090        -1.44953
C           5.74520         1.63084        -2.18541
N           6.78126         1.07056        -1.46507
C           7.77216         1.51896        -2.00363
C           9.03123         1.83032        -2.34797
C           8.78164         2.55969        -3.73947
C          10.06932         2.92155        -3.83256
C           8.38455         3.00384        -3.84218
C           6.34803         2.84100        -3.69189
C           4.81835         2.61554        -3.48486
C           3.10536         2.65940        -3.52938
C           2.21269         1.94114        -2.57330
C           3.02041         0.72868        -0.96210
O           3.24208        -0.13944         0.12073
H           0.08454         0.64143        -0.89754
H           0.25703        -0.47225         0.54811
H           7.36086         2.03096        -2.71088
H           9.80260         1.34720        -1.80603
H           8.30733         3.80482        -4.97789
H          10.93611         2.42771        -3.22523
H           9.56809         3.63982        -4.75048
H           4.18129         2.08543        -2.76844
H           2.70959         3.28754        -4.33424
H           1.07180         2.11198        -2.80671

