%chk=NCC1CCCCSC[C]C1dCCdS.chk
%NProcShared=20
# opt freq b3lyp/6-31g(2df,p)

Title Card Required 

0  1
N           0.60303        -0.36650         0.15072
C           2.04882        -0.44017         0.18077
C           2.84829        -1.48142        -0.64258
C           2.33869        -1.48910        -2.11431
C           2.74289        -0.31116        -3.02352
C           2.15573         1.05433        -2.66728
C           3.15454         2.21689        -2.52445
S           4.77350         2.21274        -1.64250
C           4.35665         1.64294         0.03904
C           4.61787         0.19188         0.01431
C           4.36337        -1.13705        -0.51180
C           5.38249        -1.79576        -1.06474
C           5.22023        -3.01369        -1.90996
S           6.42945        -3.73557        -2.81499
H           0.35517         0.55876         0.51609
H           0.20670        -1.04274         0.79131
H           2.40935        -0.36131         1.21320
H           2.29668         0.49167        -0.28544
H           2.66987        -2.46427        -0.18501
H           1.24736        -1.58994        -2.11405
H           2.67712        -2.39779        -2.62134
H           2.37477        -0.56391        -4.02868
H           3.82970        -0.26162        -3.13062
H           1.46180         1.02975        -1.83105
H           1.46095         1.33141        -3.47507
H           2.61003         3.08384        -2.14074
H           3.45570         2.45798        -3.54810
H           3.30935         1.90280         0.23028
H           4.88695         2.18774         0.82504
H           6.40634        -1.41207        -1.00421
H           4.20806        -3.43569        -1.94439

