%chk=NCCdCdC1CdCCdCCdCCdNCdC1.chk
%NProcShared=20
# opt freq b3lyp/6-31g(2df,p)

Title Card Required 

0  1
N           1.16275         0.00944         0.06163
C           2.76791         0.03451         0.11559
C           4.07342        -0.01292         1.61953
C           5.86330         0.20413         1.95944
C           7.57767         0.66204         2.25656
C           6.50620         1.47341         2.54393
C           7.75897         1.51463         2.86712
C           8.26465         2.67920         3.25185
C           9.51046         2.73951         3.61955
C           9.91212         3.99737         3.74235
C          10.46907         2.82721         4.55407
C          11.42414         4.27939         4.40285
N          12.65190         3.36650         4.16109
C          11.42912         2.48038         2.86111
C           9.91145         1.41395         2.39411
H           0.78315         0.12584        -0.91753
H           0.76662         0.80129         0.56977
H           2.94569         0.96864        -0.40780
H           2.95208        -0.80334        -0.58225
H           2.72052        -0.19093         2.22096
H           5.79411         2.23341         2.62870
H           8.79099         0.44301         3.00254
H           7.69739         3.48067         3.33995
H          10.59713         1.51654         3.62023
H           9.80347         4.88531         4.31614
H          11.65469         1.69396         4.30586
H          11.78595         5.43048         4.73941
H          12.50593         3.42452         3.95530
H           9.82919        -0.18306         2.61856

