%chk=NdC1CdCCdNCdCCdCSCdC1N.chk
%NProcShared=20
# opt freq b3lyp/6-31g(2df,p)

Title Card Required 

0  1
N           2.50289         0.06844        -0.35913
C           4.26609         0.19955        -0.81381
C           3.10047         0.41375        -1.55662
C           4.40495         0.43336        -1.62466
C           4.99672         0.76338        -2.76913
N           6.12541         0.83190        -3.00673
C           6.72419         1.12164        -4.01151
C           7.93134         1.10059        -3.93852
C           8.53837         1.46075        -5.18751
C           9.69677         1.35776        -4.83036
S          10.51166         1.02955        -3.69217
C           8.60984         0.55628        -2.05092
C           6.76774         0.29851        -1.15698
N           5.22813        -0.14009         0.36403
H           0.99162         0.19469        -0.79696
H           2.45861         0.63307        -2.31720
H           5.47705         0.25109        -0.99255
H           4.50129         0.99098        -3.55842
H           6.51387         1.37363        -4.88538
H           7.41723         0.70204        -2.55638
H           8.69296         1.74328        -6.16728
H          11.11482         1.16810        -4.17262
H          10.00809         0.84874        -3.06514
H           4.22070        -0.45338         1.45047
H           3.73453        -0.27698         0.83873

