%chk=Ndc1ssc2c1dNNc1ccccc1Nd2.chk
%NProcShared=20
# opt freq b3lyp/6-31g(2df,p)

Title Card Required 

0  1
N           0.90642        -0.11176        -0.20576
C           2.17662         0.01531        -0.35831
S           3.03751         1.48281        -0.12544
S           4.94139         0.78268        -0.22958
C           4.61482        -0.90738        -0.28607
C           3.19667        -0.99202        -0.78182
N           2.83110        -1.89517        -1.65930
N           3.80764        -2.76721        -2.13409
C           4.27136        -3.66011        -1.11689
C           3.76685        -4.95954        -1.04527
C           3.98502        -5.72282         0.10330
C           4.78369        -5.23063         1.13627
C           5.37294        -3.97429         1.02048
C           5.06375        -3.15887        -0.06535
N           5.47988        -1.81603        -0.01669
H           0.53364         0.81074         0.05690
H           4.64051        -2.25856        -2.45552
H           3.16454        -5.35340        -1.85933
H           3.50727        -6.69355         0.20533
H           4.92650        -5.81049         2.04420
H           6.01826        -3.59630         1.80879

