%chk=Ndc1cqdSrsccc2ccccc12.chk
%NProcShared=20
# opt freq b3lyp/6-31g(2df,p)

Title Card Required 

0  1
N           4.08591         1.05827        -1.42932
C           4.66711         2.19013        -0.88520
C           3.70893         2.20810         0.34374
S           2.22260         2.91314         0.38853
S           4.57671         1.12667         1.40132
C           5.58503         2.47544         1.45323
C           6.83338         2.37177         1.00840
C           6.73859         3.56329         0.28402
C           7.06613         4.85594         1.28517
C           7.56485         6.07737         0.98486
C           8.05945         5.88613        -0.24371
C           7.47194         4.52271        -1.11810
C           6.42254         3.28560        -1.04829
H           3.07469         0.65442        -0.85015
H           5.02274         3.44869         1.08643
H           7.39456         1.54852         0.55933
H           6.62609         4.74971         2.27892
H           7.62903         6.97301         1.61159
H           8.96835         6.54491        -0.39427
H           8.61838         4.23154        -1.30377

