%chk=Ndc1ccccc2c1dCCqCdOrdCCdCCqdOrCd2.chk
%NProcShared=20
# opt freq b3lyp/6-31g(2df,p)

Title Card Required 

0  1
N           1.68947        -0.70299         2.24011
C           3.03616        -0.85209         2.68308
C           3.43486        -0.42676         1.21426
C           4.59049        -0.19777         0.59222
C           5.50882        -0.63780         1.51391
C           6.60478        -0.87007         2.03173
C           6.31135        -1.44355         3.39445
C           4.46804        -1.59206         3.91050
C           4.23757        -2.28310         5.19770
C           5.02814        -2.96750         6.57906
C           4.32207        -3.55397         7.85323
O           3.11354        -3.63261         8.02679
C           6.33866        -3.12329         6.92171
C           7.29261        -2.70407         6.02092
C           8.60314        -2.67380         5.95659
C           8.95516        -2.07876         4.67667
O          10.15174        -1.95610         4.40251
C           7.72967        -1.61878         3.69771
H           1.59060        -0.33802         1.07747
H           3.35810        -1.54271         1.45853
H           4.99128         0.27675        -0.26553
H           4.88502        -0.98007         2.23920
H           7.51288        -0.60682         1.49756
H           3.20070        -2.45194         5.50718
H           4.99160        -3.93658         8.68379
H           6.80027        -3.54036         7.82363
H           6.70803        -2.34077         5.23135
H           9.31873        -3.01327         6.68821
H           8.49235        -1.28332         2.93674

