%chk=NdC1CdCCdCCdCC2dCCdCCdCCdNCdCC12.chk
%NProcShared=20
# opt freq b3lyp/6-31g(2df,p)

Title Card Required 

0  1
N           5.02940        -2.60571        -0.31211
C           7.10542        -3.97436        -0.36461
C           4.84893        -2.53849        -0.33895
C           5.48174        -1.28360        -0.18265
C           5.66391        -3.64501        -0.40711
C           7.12969        -2.52908        -0.30227
C           8.20384        -4.62869        -0.50388
C           8.90103        -3.78473        -0.42076
C           9.32583        -4.87965        -0.52438
C          10.69125        -5.15245        -0.55045
C          11.47995        -6.45733        -0.67440
C          12.66729        -5.91894        -0.62335
C          11.87434        -6.84937        -0.71173
C          14.13361        -7.21177        -0.74618
C          15.27941        -9.37262        -0.95148
N          16.71511        -8.45483        -0.86419
C          14.81662        -8.80874        -0.89445
C          12.74218        -7.51749        -0.78260
C           9.93472        -5.85407        -0.64253
H           3.39904        -1.36885        -0.19122
H           2.83542        -2.29306        -0.27908
H           4.87547        -0.39568        -0.09862
H           4.43745        -3.81352        -0.42311
H           7.02559        -1.56416        -0.20963
H           6.72013        -5.13975        -0.55009
H           9.14387        -2.97033        -0.34324
H          11.26159        -4.30149        -0.46967
H          10.75639        -7.51765        -0.77523
H          13.42913        -5.56095        -0.58935
H          12.79612        -8.70582        -0.88812
H          15.57362        -6.82462        -0.70940
H          14.98932       -10.40319        -1.04939
H          16.37011       -10.28337        -1.03826
H          14.83237        -8.16759        -0.83704
H           8.66294        -6.95079        -0.72150

