%chk=NdCCNCC[SH]dCSS.NdCN.chk
%NProcShared=20
# opt freq b3lyp/6-31g(2df,p)

Title Card Required 

0  1
N           1.35922         1.47560        -0.36025
C           2.54923         1.13427        -0.04354
C           3.15028         1.21948         1.34015
N           4.53034         0.73019         1.16527
C           5.31661         1.09456         2.33200
C           6.81977         0.95464         2.07247
S           7.63319         1.69269         3.51942
C           9.33215         1.37895         3.08228
S          10.38595         1.90245         4.36531
S          12.24355         1.59730         3.55978
N           0.59039        -1.00541         0.56357
C           1.66827        -1.41165         0.01378
N           2.66868        -1.84921         0.81537
H           1.16927         1.10399        -1.30620
H           3.17206         0.60506        -0.79963
H           2.62322         0.55507         2.03700
H           3.05312         2.24437         1.70819
H           4.93842         1.20152         0.35545
H           5.02097         0.47384         3.18606
H           5.10730         2.14157         2.58230
H           7.11286         1.51188         1.17441
H           7.10917        -0.09465         1.94299
H           7.40401         0.74603         4.40292
H           9.67331         0.94931         2.12910
H          13.00174         2.05173         4.57287
H           0.09753        -0.34531        -0.06263
H           1.97855        -1.19010        -1.03031
H           2.33775        -1.70034         1.76775
H           3.53283        -1.31034         0.71599

