%chk=NdCc1c2cccc-2sc2c1dCCd2.chk
%NProcShared=20
# opt freq b3lyp/6-31g(2df,p)

Title Card Required 

0  1
N           1.00414         0.00256        -0.08230
C           2.29675         0.04995        -0.11153
C           3.02092         1.07077        -0.97924
C           4.04631         0.55358        -1.76843
C           4.69521        -0.79760        -1.99066
C           5.44914        -0.74831        -3.13513
C           5.61480         0.64609        -3.48392
C           4.74354         1.34801        -2.75347
S           4.51537         2.95366        -3.06571
C           3.24210         3.24191        -1.98633
C           2.35632         2.68456        -0.93082
C           1.87068         4.01254        -0.95357
C           2.72901         4.44677        -1.96245
H           0.62942        -0.71528         0.54642
H           2.90608        -0.66926         0.48900
H           4.52777        -1.65661        -1.35562
H           5.87897        -1.53933        -3.76360
H           6.30654         1.15822        -4.15881
H           1.19020         4.81853        -0.59284
H           3.06130         5.26565        -2.59807

