%chk=NdCC1qNdOrNdCCdCC2dCdNC21.chk
%NProcShared=20
# opt freq b3lyp/6-31g(2df,p)

Title Card Required 

0  1
N           0.88725        -0.04245         0.18800
C           2.18684        -0.04627         0.22875
C           3.10220         0.83278         1.10500
N           3.89548         1.55971         0.01791
O           4.21733         2.72096         0.30112
N           2.42997         1.84989         1.96589
C           1.82264         1.70775         3.08219
C           1.33812         0.51729         3.83604
C           1.84455        -0.71562         3.75344
C           3.07557        -0.95032         3.04936
C           3.87029        -1.68249         2.43788
N           4.66335        -1.59061         1.61516
C           4.06118         0.00823         2.02631
H           0.56205        -0.71207        -0.52815
H           2.72382        -0.73966        -0.45783
H           1.55117         2.64738         3.61073
H           0.45438         0.69293         4.44155
H           1.29644        -1.54930         4.17600
H           4.88073         0.54628         2.53716

