%chk=NdCNCCqdCCNdSrN1CdCNdCqNrC1.chk
%NProcShared=20
# opt freq b3lyp/6-31g(2df,p)

Title Card Required 

0  1
N           1.03836        -0.10238        -0.13840
C           2.32770        -0.11143        -0.19466
N           3.03339        -0.00748         0.92991
C           4.43976         0.01386         1.21727
C           4.88524         0.11873         2.71841
C           4.04985         0.22254         3.78878
C           2.54090         0.24418         3.75241
N           1.93926         0.36922         5.07632
S           0.42022         0.36996         4.98278
N           6.30653         0.10935         2.91016
C           6.94686        -0.55411         3.94802
C           8.26952        -0.49493         4.16955
N           9.16368         0.23225         3.41507
C           8.64627         0.93250         2.44006
N           9.48038         1.66436         1.63021
C           7.14284         1.00245         2.10204
H           0.58701        -0.18962        -1.03643
H           2.88938        -0.20083        -1.13087
H           2.39399         0.05826         1.70743
H           4.87164         0.86107         0.67308
H           4.89128        -0.90011         0.81163
H           4.45584         0.33241         4.79032
H           2.25304        -0.71801         3.29707
H           2.27545         1.11806         3.13355
H           6.29775        -1.16084         4.57541
H           8.69384        -1.06332         4.99287
H          10.45403         1.73667         1.88792
H           9.10203         2.30416         0.94546
H           7.06168         0.74743         1.04072
H           6.82885         2.04270         2.24937

