%chk=NdCNc1c2cnnc1CdCCdCCdCCdC2.chk
%NProcShared=20
# opt freq b3lyp/6-31g(2df,p)

Title Card Required 

0  1
N           0.78730        -0.07673         0.08641
C           2.07131        -0.12699         0.19932
N           2.73223        -1.33655         0.25490
C           2.82159        -2.06338        -1.15118
C           4.59721        -2.57977        -1.22485
C           5.70298        -1.87063        -1.09850
N           4.85408        -0.98882        -1.49662
N           3.05561        -1.01727        -2.24004
C           1.73264        -1.66265        -2.16445
C           0.33649        -2.28715        -3.52853
C          -0.54370        -3.32470        -4.42092
C          -0.72185        -4.57764        -3.63445
C           0.50735        -5.01326        -3.98130
C           1.46432        -4.33878        -3.20649
C           2.65713        -4.00801        -3.69315
C           3.44108        -3.77039        -2.60048
C           4.66634        -3.34927        -2.49777
H           0.45577         0.89123         0.09030
H           2.73801         0.77460         0.19687
H           2.07808        -2.09636         0.42052
H           6.69501        -2.31677        -1.67645
H          -0.93531        -2.18432        -3.60536
H          -1.01230        -4.33103        -5.17389
H          -1.49575        -4.19613        -2.91758
H           0.77868        -4.95723        -5.10448
H           1.00632        -3.86222        -2.27525
H           3.08413        -4.27461        -4.61660
H           2.76810        -3.79115        -1.74375
H           5.31507        -3.30968        -3.35084

