%chk=NdCNNdCCdCqSrC1CCqdOrC1CCCNdNNN.chk
%NProcShared=20
# opt freq b3lyp/6-31g(2df,p)

Title Card Required 

0  1
N           1.02233        -0.16185         0.11026
C           2.31071        -0.12134         0.10585
N           3.11816        -1.21213         0.22905
N           4.48772        -1.17389         0.22332
C           5.06435        -2.32814         0.35182
C           6.54694        -2.50030         0.37078
C           7.22309        -3.66221         0.49714
S           6.47482        -5.23710         0.64804
C           8.75106        -3.61156         0.50082
C           9.45313        -4.45609        -0.61140
C           9.90075        -5.43247         0.49014
O          10.42212        -6.52423         0.47275
C           9.46864        -4.46649         1.62322
C          10.63012        -3.82773         2.39184
C          11.19062        -4.81186         3.43638
C          12.32879        -4.19635         4.25836
N          12.83841        -5.17275         5.24774
N          13.77411        -4.69783         5.92970
N          14.25994        -5.63809         6.76577
N          15.20858        -5.27767         7.71245
H           0.65518         0.79235         0.00259
H           2.86099         0.82824        -0.00127
H           2.60234        -2.08519         0.32694
H           4.45684        -3.23586         0.45555
H           7.08038        -1.55629         0.26916
H           5.16780        -4.96468         0.65262
H           9.11414        -2.57345         0.48922
H          10.30347        -3.96450        -1.09673
H           8.81895        -4.90452        -1.38035
H           8.77399        -4.93029         2.33330
H          10.26776        -2.92586         2.89862
H          11.42261        -3.51489         1.70060
H          11.54419        -5.72159         2.93603
H          10.38164        -5.12742         4.10755
H          11.96027        -3.30083         4.77262
H          13.13882        -3.89691         3.58264
H          13.70816        -6.49105         6.86214
H          15.52006        -4.32920         7.49328
H          16.03340        -5.86530         7.57047

