%chk=NN1NdCCONdCc2cqSCdOrccnc21.chk
%NProcShared=20
# opt freq b3lyp/6-31g(2df,p)

Title Card Required 

0  1
N           3.97379         0.62334         1.25286
N           5.73776         0.08625         2.11988
N           4.28228        -0.75190         1.68405
C           4.74639        -1.43365         0.69909
C           4.98632        -2.03344         2.10562
O           6.24347        -2.01479         1.65123
N           6.98678        -2.31739         2.64041
C           8.07301        -2.08252         1.97680
C           8.34986        -1.96550         3.25410
C           8.99283        -3.65688         3.67373
S           7.98907        -5.04241         3.20305
C           7.00396        -4.33819         1.97361
O           5.81168        -4.50921         1.75890
C          10.11722        -3.99286         4.33315
C          10.42359        -2.68025         3.96678
N           9.27768        -1.21136         3.38525
C           7.66818        -0.44685         2.85230
H           3.09184         0.17371         0.29130
H           2.64809         0.31197         1.43048
H           5.07598        -0.42587         0.02753
H           4.56704        -2.96346         2.02817
H           4.85449        -1.42303         3.17619
H           8.94943        -1.36682         1.45573
H           7.39708        -3.59548         1.28779
H          10.47119        -5.02114         4.83426
H          11.74526        -3.22801         4.08880

