%chk=Nn1scnscnccccc2[nH]c1d2.chk
%NProcShared=20
# opt freq b3lyp/6-31g(2df,p)

Title Card Required 

0  1
N           4.73115        -2.53173         0.48675
N           7.08419        -3.88964         0.76605
S           4.84683        -2.94316         0.50901
C           5.94268        -1.37425         0.29816
N           6.04073        -2.96247         0.53153
S           7.84907        -2.06983         0.39806
C           8.44363        -3.93538         0.70753
N           9.32444        -3.22697         0.62503
C          10.38016        -4.02298         0.51429
C          11.29760        -4.33357         0.90474
C          11.25971        -6.70156         1.18616
C          12.63653        -6.34956         1.09593
C          11.04023        -6.12587         1.06510
N          11.95083        -5.50409         0.94296
C           9.39603        -4.95862         0.94330
H           3.49080        -1.34580         0.28277
H           3.18409        -1.80326         0.35750
H           5.40848        -0.44292         0.12696
H           7.70192        -5.11701         0.88494
H           9.84848        -5.97981         0.94802
H          12.31697        -4.07101         0.72551
H          11.28200        -7.72264         1.31176
H          14.22801        -5.40428         0.94284
H          13.72270        -6.26692         1.08568

