%chk=NN[N]C1dNCdCNdCCqdSr[N]1.chk
%NProcShared=20
# opt freq b3lyp/6-31g(2df,p)

Title Card Required 

0  1
N           1.25556         0.19737         0.17278
N           2.98152         0.06115         0.06086
N           4.14638         1.40331         0.58200
C           5.69873         1.68144         0.69007
N           4.97107         2.75345         1.12691
C           5.58833         3.75606         1.56526
C           5.87941         4.92894         2.04586
N           7.08005         4.86755         2.00936
C           8.36733         5.03554         2.07457
C           8.40717         3.42488         1.33428
S          10.17365         4.00838         1.70743
N           7.38815         2.11281         0.85168
H           0.84305        -0.68634        -0.20885
H           0.86416         0.88315        -0.49089
H           3.09366         0.02117        -0.94594
H           6.48324         3.30957         1.62714
H           5.35558         5.76434         2.36270
H           8.03667         6.01573         2.49028

