%chk=NNC1dCNdC2CdCCdCCdCCdC1CdC2.chk
%NProcShared=20
# opt freq b3lyp/6-31g(2df,p)

Title Card Required 

0  1
N           1.12964         0.05936        -0.03130
N           2.62008         0.16488        -0.15726
C           3.11759         1.24603        -1.12846
C           2.31402         2.20708        -1.52758
N           2.39828         2.73345        -3.03047
C           3.54514         2.53789        -4.03961
C           4.55260         3.63680        -4.66067
C           3.56052         4.44658        -4.68272
C           3.69576         5.62110        -5.44184
C           2.64036         6.08518        -4.68591
C           3.71112         7.05855        -4.45285
C           3.86709         6.09550        -3.12561
C           4.06108         4.15434        -2.20036
C           4.30637         2.48941        -1.81554
C           4.88430         0.97610        -2.82892
C           4.88363         1.61671        -3.96233
H           0.76535        -0.50828         0.74687
H           0.73642        -0.34140        -0.88956
H           3.09607        -0.36576         0.60332
H           1.74304         2.50510        -0.62247
H           5.39194         3.82679        -5.33531
H           2.72638         4.48549        -3.63030
H           4.67590         6.11315        -5.93565
H           1.85532         6.86177        -3.90770
H           3.71828         7.74113        -5.76288
H           3.30559         7.34523        -3.68924
H           4.37925         3.01995        -2.59138
H           5.66686         0.01141        -2.97864
H           5.81063         1.75157        -4.52419

