%chk=NNC1dCCdCCdCc2ncccc21.chk
%NProcShared=20
# opt freq b3lyp/6-31g(2df,p)

Title Card Required 

0  1
N           2.33620         0.10155         0.88105
N           4.17246         0.52696         1.65823
C           5.88638         0.50619         2.67091
C           5.50073        -0.29839         1.52519
C           5.52204        -1.37495         2.35375
C           6.83253        -1.55003         2.17946
C           7.29927        -1.92733         3.43641
C           8.59173        -1.61540         3.39869
C           8.32304        -1.07756         4.76185
N           8.84587        -2.48655         5.67140
C           9.68666        -2.46399         6.65593
C          10.34026        -1.43588         6.17199
C           9.29977        -0.24280         5.02300
C           7.75549         0.24364         3.91500
H           1.74426         0.07423        -0.31590
H           1.29399         0.62778         0.95368
H           4.07312         0.17685         0.40874
H           5.50257        -0.24896         0.34162
H           4.83345        -1.19919         3.29996
H           7.38526        -0.68902         1.51090
H           6.65450        -1.52293         4.45190
H           9.25450        -0.96628         2.72724
H           9.64789        -3.06499         7.59472
H          11.52183        -1.89666         6.83054
H          10.63261         0.03689         5.40385

