%chk=NNdC1CdCCdCC1dCC1dCCdCSN1N.chk
%NProcShared=20
# opt freq b3lyp/6-31g(2df,p)

Title Card Required 

0  1
N           0.93432         0.02395        -0.13682
N           2.23477        -0.19743        -0.30415
C           2.90902        -0.90823         0.55857
C           2.26617        -1.75657         1.60369
C           2.98294        -2.55028         2.41337
C           4.41632        -2.58033         2.38134
C           5.11587        -1.81849         1.52665
C           4.44939        -0.92574         0.57643
C           5.17781        -0.05712        -0.16283
C           4.64142         1.06279        -0.95060
C           4.81919         1.02922        -2.28963
C           4.25776         2.04058        -3.15687
C           3.43608         2.99986        -2.71487
S           2.95587         3.16601        -1.06817
N           3.98340         2.11053        -0.26901
N           3.63473         1.94991         1.07731
H           0.52329         0.74927        -0.71236
H           0.32189        -0.57625         0.38787
H           1.19330        -1.76815         1.65975
H           2.45887        -3.18880         3.11317
H           4.91371        -3.22624         3.09926
H           6.20120        -1.82494         1.57705
H           6.26601        -0.07436        -0.12108
H           5.36020         0.22132        -2.77480
H           4.49116         1.98359        -4.21524
H           3.01565         3.71868        -3.40786
H           2.89612         2.60905         1.29971
H           4.43560         2.09434         1.67532

