%chk=NtCc1cccccccncc2ccc1-2.chk
%NProcShared=20
# opt freq b3lyp/6-31g(2df,p)

Title Card Required 

0  1
N           1.03266        -0.03523         0.08771
C           2.29362        -0.03523         0.08771
C           3.81362        -0.03523         0.08771
C           4.32895        -1.10070         0.69539
C           5.54036        -1.03983         0.66067
C           6.03838        -2.49811         1.49238
C           5.80552        -1.52327         0.93639
C           7.57347        -2.79775         1.66327
C           8.42598        -2.59230         1.54610
C           9.96132        -4.36777         2.55871
N          10.81173        -5.03858         2.94130
C          11.44781        -4.43192         2.59530
C           9.61579        -2.92367         1.73509
C          11.77681        -4.06098         2.38374
C           9.77647        -2.74184         1.63139
C           6.89352        -1.30833         0.81381
H           3.99596        -1.91143         1.15777
H           6.47725        -0.17995         0.17025
H           6.12643        -3.14321         1.86030
H           8.03357        -1.22176         0.76443
H           8.27051        -4.05574         2.38075
H           9.58891        -1.64377         1.00512
H          10.36124        -5.32245         3.10320
H          12.42411        -6.05851         3.52300
H          13.37973        -5.62754         3.27721
H          11.93336        -3.50174         2.06478

