%chk=NtCc1c2cccc3cccccc-3csnnc1-2.chk
%NProcShared=20
# opt freq b3lyp/6-31g(2df,p)

Title Card Required 

0  1
N           1.02713         0.04103        -0.08706
C           2.28810         0.04103        -0.08706
C           3.80810         0.04103        -0.08706
C           4.59674         1.04615         0.57254
C           5.73969         0.92980         1.28197
C           6.46708         2.13325         1.65159
C           7.80974         2.14401         1.67560
C           8.61259         3.30369         2.02759
C           8.29946         3.72974         3.25322
C           8.83685         4.72191         4.14567
C           9.90836         5.45360         3.99587
C          10.79656         5.47440         2.84975
C          10.72268         4.80967         1.67473
C           9.69440         3.79816         1.14756
C           9.80212         3.31850        -0.15099
S           8.89852         1.88644        -1.12837
N           7.03310         1.97729        -1.18996
N           6.32121         0.81979        -1.15497
C           4.76474         0.78134        -0.85573
H           6.41001         0.08124         1.09103
H           5.91879         3.06100         1.79966
H           8.39968         1.27136         1.40166
H           7.46873         3.22650         3.74985
H           8.26685         4.80146         5.07871
H          10.17459         6.12187         4.82705
H          11.62956         6.16567         3.02669
H          11.56424         5.04610         1.01489
H          10.70615         3.66347        -0.68579

