%chk=NtCc1cccnc2cc3cccsc-3nn-2n1.chk
%NProcShared=20
# opt freq b3lyp/6-31g(2df,p)

Title Card Required 

0  1
N           2.82878        -0.34834        -0.46958
C           3.87178        -0.28418        -0.93499
C           5.33145         0.58856        -1.32382
C           4.70725         1.63590        -0.51282
C           5.64226         1.90486         0.35612
C           6.08541         2.94853        -0.49539
N           7.31184         3.05774        -0.15582
C           7.79277         3.17432        -1.35202
C           7.96152         4.49135        -1.56114
C           8.80508         5.15679        -2.41716
C           8.80489         6.52718        -2.30649
C           9.68313         7.49857        -2.90041
C          10.74350         7.06071        -3.59017
S          11.07825         5.17985        -3.86197
C           9.58982         4.06764        -3.13092
N           9.19423         2.65296        -3.21613
N           7.87369         2.10001        -2.21085
N           6.61805         0.72750        -2.09868
H           3.93836         2.17254        -1.05946
H           6.46736         1.17136         0.55013
H           5.70053         3.09923        -1.60271
H           7.38160         5.11003        -0.90731
H           8.06044         7.05978        -1.69597
H           9.48202         8.59023        -2.76165
H          11.39635         7.86416        -4.00940

