%chk=OCC1dCqN2CdCCCSC2rSSqSrdC1.chk
%NProcShared=20
# opt freq b3lyp/6-31g(2df,p)

Title Card Required 

0  1
O           0.97961         0.05127        -0.03792
C           2.40221         0.05920        -0.17530
C           2.84674         1.14082        -1.14202
C           3.57592         0.90041        -2.32058
N           4.18530        -0.25989        -2.76303
C           3.53504        -1.45364        -3.03468
C           3.99041        -2.68918        -2.73616
C           5.18673        -2.98429        -1.86194
C           5.55370        -1.90376        -0.83588
S           6.60910        -0.59209        -1.51214
C           5.64414        -0.18529        -2.99449
S           3.83603         2.39145        -3.19240
S           2.79959         3.57242        -2.04935
S           4.45628         4.43572        -1.26601
C           2.60160         2.46574        -0.76922
H           0.75875        -0.71890         0.51155
H           2.68981        -0.94219        -0.48900
H           2.82880         0.23669         0.82104
H           2.62279        -1.32996        -3.61445
H           3.44114        -3.55295        -3.10120
H           6.04606        -3.23374        -2.49552
H           4.94771        -3.89268        -1.29468
H           6.08466        -2.34597         0.01094
H           4.66748        -1.43887        -0.40451
H           5.93626        -0.86120        -3.80885
H           5.97519         0.80374        -3.31997
H           4.87736         5.06866        -2.37474
H           2.15170         2.80461         0.15594

