%chk=OCCdNC1dCCdCCqOrdCqOrCdC1.chk
%NProcShared=20
# opt freq b3lyp/6-31g(2df,p)

Title Card Required 

0  1
O           1.10748        -0.10628        -0.06484
C           2.52586        -0.10388        -0.05333
C           3.08162        -1.34097        -0.73276
N           4.35999        -1.48069        -0.92220
C           4.75804        -2.68442        -1.45662
C           4.33880        -3.18893        -2.63653
C           4.69480        -4.51199        -3.13205
C           4.34477        -5.65587        -2.51453
C           3.61001        -5.69267        -1.25955
O           2.31994        -6.18842        -1.32094
C           4.09742        -5.20155        -0.11055
O           3.34671        -5.14383         1.04366
C           5.39701        -4.57425         0.00287
C           5.69951        -3.41929        -0.61716
H           0.82065         0.69650         0.40599
H           2.86838        -0.08490         0.98592
H           2.88272         0.78838        -0.57394
H           2.33970        -2.10828        -1.02633
H           3.65188        -2.62303        -3.25748
H           5.31417        -4.53962        -4.02517
H           4.69121        -6.61185        -2.89810
H           2.12414        -6.38702        -2.25286
H           2.45714        -5.44665         0.77815
H           6.14278        -5.10874         0.58146
H           6.70231        -3.00777        -0.54933

