%chk=OdC1CdCCdC2CdCCdCCdC[SH]2C1dCOO.chk
%NProcShared=20
# opt freq b3lyp/6-31g(2df,p)

Title Card Required 

0  1
O           1.75535         0.59108        -0.02551
C           2.95389         0.46917        -0.18432
C           3.57903        -0.86591         0.03308
C           4.65920        -1.30551        -0.61025
C           5.10084        -0.86782        -1.91999
C           4.90288         0.22701        -2.66852
C           5.00995         0.12845        -4.11083
C           4.29095         0.98996        -4.85037
C           4.82307         1.70367        -5.99150
C           5.10889         2.95944        -5.57669
C           5.87926         3.19586        -4.31741
C           5.76544         2.90080        -2.96036
S           4.48707         1.82454        -2.12311
C           3.91985         1.63102        -0.48857
C           4.02026         2.57209         0.46000
O           4.79588         3.68942         0.31140
O           4.76592         4.39360         1.57928
H           3.06312        -1.53413         0.72864
H           5.02988        -2.29709        -0.32984
H           5.50175        -1.73359        -2.45132
H           5.79071        -0.50072        -4.51563
H           3.55880         1.64987        -4.38057
H           5.64482         1.10079        -6.38807
H           4.36003         3.74110        -5.75700
H           6.80142         3.65500        -4.72684
H           6.63770         3.18168        -2.37035
H           3.30674         2.12893        -2.67549
H           3.49816         2.52310         1.41987
H           5.44490         5.04786         1.33364

