%chk=OdC1CdCdCNdCCdCCCNdC1O.chk
%NProcShared=20
# opt freq b3lyp/6-31g(2df,p)

Title Card Required 

0  1
O           3.37816         0.74452        -1.39599
C           4.44159         0.26568        -0.90868
C           3.89504        -0.71799         0.27761
C           4.73863        -1.14359         1.04276
C           6.06452        -1.17769         1.09287
N           6.49821        -1.19298        -0.17389
C           7.76984        -1.13005        -0.31352
C           8.25448        -1.28248        -1.68762
C           9.52824        -0.99993        -1.94507
C           9.54523         0.12365        -3.20264
C           9.24653         1.11066        -2.03253
N           7.44105         1.23795        -1.77634
C           6.06128         1.09580        -1.47689
O           5.20217         2.17354        -2.02839
H           2.82393        -0.99095         0.52744
H           6.61109        -1.36644         1.96511
H           8.44245        -0.92543         0.53096
H           7.57853        -0.99421        -2.49168
H          10.18729        -0.90923        -1.03727
H          10.26453         0.91686        -3.59727
H          10.32764        -0.52533        -3.67824
H          10.37894         0.65459        -1.73444
H           9.92064         1.89769        -1.54119
H           4.21782         1.93695        -2.05016

