%chk=OdC1CdCCdCCdCNqCOrCdCN1S.chk
%NProcShared=20
# opt freq b3lyp/6-31g(2df,p)

Title Card Required 

0  1
O           2.59836         0.12747        -0.36383
C           4.21711         0.34003        -0.82334
C           3.00467         0.70577        -1.46318
C           4.31470         0.70204        -1.46739
C           4.91127         1.29628        -2.54304
C           6.24294         1.40198        -2.74074
C           6.55926         1.97335        -3.81594
C           6.94671         1.18862        -2.93754
N           8.19728         2.12539        -4.13984
C           8.50122         3.00282        -5.67671
O           7.17387         3.00404        -5.78718
C           9.72804         1.92399        -3.52135
C           8.29217         1.58930        -2.57869
N           6.35924         0.73524        -1.22460
S           4.94077        -0.43358         0.63316
H           2.38135         1.07318        -2.14160
H           5.46818         0.20640        -0.59551
H           4.45075         1.70097        -3.28761
H           7.53179         0.80194        -1.65256
H           6.44354         2.52848        -4.48603
H           8.58465         0.69051        -1.86073
H           8.84684         2.52185        -6.64125
H           8.84338         4.07841        -5.78889
H           7.00796         1.99427        -5.62402
H          11.19069         1.98861        -3.82319
H           9.49802         1.99533        -3.75874
H           3.67156        -1.19325         2.02162

