%chk=OdC1CdCC2dCC2dCCdCdNCdCS1.chk
%NProcShared=20
# opt freq b3lyp/6-31g(2df,p)

Title Card Required 

0  1
O           0.76342        -0.05764        -0.02156
C           1.12131         0.92196         0.63295
C           2.66216         1.14944         0.70707
C           4.02251         1.07365         0.61841
C           4.76150         2.14655         1.22221
C           5.88743         2.67394         1.53189
C           4.77130         3.39127         2.05209
C           3.50416         3.74478         2.28134
C           2.79251         4.75101         3.00438
C           1.51324         4.88688         2.74388
N           0.52336         5.12396         2.21285
C          -0.54593         4.65021         2.88002
C          -1.08510         3.48382         2.42765
S          -0.32857         2.27802         1.09889
H           2.43069         2.03606         1.13766
H           4.68280         0.31855         0.16271
H           6.92731         2.46444         1.44969
H           2.65337         3.26772         1.88846
H           3.23793         5.63546         3.38059
H          -0.98362         5.46028         3.52371
H          -2.20444         3.60062         2.46770

