%chk=OdC1CdCCdCC2dCCdCCdCC2dC1.chk
%NProcShared=20
# opt freq b3lyp/6-31g(2df,p)

Title Card Required 

0  1
O           2.66358         0.08266         0.78915
C           3.59751        -0.77961         0.69008
C           3.14577        -1.63448        -0.34470
C           4.28303        -1.60250        -1.01287
C           4.99087        -2.76774        -0.80537
C           6.32714        -2.57387        -0.80717
C           6.81756        -3.62876         0.03282
C           6.63190        -4.57673        -0.95968
C           7.24120        -5.90460        -1.14901
C           8.22390        -6.28640        -0.35159
C           8.54830        -5.23298         0.74963
C           7.96740        -3.86005         1.34659
C           6.72746        -2.49035         1.28493
C           5.31116        -1.31364         1.23200
H           2.41936        -2.32221         0.04089
H           4.99248        -0.74332        -1.00100
H           4.56242        -3.59331        -0.15480
H           6.96442        -1.65660        -0.77159
H           5.89825        -4.54948        -1.72554
H           6.87266        -6.60919        -1.90603
H           8.69305        -7.31231        -0.58257
H           9.51889        -5.80172         1.00552
H           8.94823        -3.68422         1.86968
H           5.30894        -0.07336         0.96610

