%chk=OdC1CdCC2dCCdCSCdCSCdCCdCC1dC2.chk
%NProcShared=20
# opt freq b3lyp/6-31g(2df,p)

Title Card Required 

0  1
O           2.75142        -1.48480         0.83605
C           3.98807        -1.38548         1.43645
C           3.53268         0.34349         0.49495
C           4.62526         1.04093         0.47074
C           5.47629        -0.07198         0.72775
C           6.49918         0.08726         1.49320
C           7.26782        -1.03273         1.78470
C           8.29693        -1.02614         2.55896
S           9.48454        -2.14260         2.39654
C          10.45551        -1.97808         3.76461
C          11.48856        -2.76973         3.76269
S          12.87230        -2.76801         4.76147
C          12.45318        -4.52041         4.51613
C          10.81664        -4.68032         4.69450
C           8.99875        -4.18773         3.73550
C           7.38104        -3.58259         2.93960
C           5.58905        -2.62672         2.13715
C           5.21131        -1.78354         0.90032
H           2.65877         1.34029         0.00517
H           4.78913         2.12243         0.34531
H           6.78175         1.04462         1.75905
H           7.17587        -2.00040         1.29897
H           8.64167        -0.11406         2.84626
H          10.82398        -1.08216         4.08694
H          11.15666        -3.62322         3.13217
H          13.12627        -5.50177         4.37626
H          12.02367        -4.64435         5.58905
H          10.06151        -5.15541         4.05679
H           6.74103        -4.12568         2.05273
H           4.98466        -2.33012        -0.03038

