%chk=OdC1CdCNdc2ccccc2dCS1.chk
%NProcShared=20
# opt freq b3lyp/6-31g(2df,p)

Title Card Required 

0  1
O           1.75861         0.51397         0.26333
C           2.84862        -0.00641         0.02283
C           2.85574        -1.37120        -0.59087
C           4.10822        -1.72185        -0.75482
N           4.88118        -2.67726        -1.21278
C           6.13927        -2.33857        -1.03902
C           7.04318        -3.43396        -1.45821
C           8.34368        -3.43383        -1.18771
C           8.98092        -2.25936        -0.66881
C           8.31050        -1.12176        -0.38907
C           6.80806        -0.99049        -0.41569
C           6.23464         0.18661         0.09202
S           4.48583         0.97793         0.42223
H           2.01487        -1.97327        -0.86825
H           4.69213        -0.99582        -0.34971
H           6.55954        -4.27224        -1.94641
H           8.94141        -4.30560        -1.44836
H          10.06689        -2.33280        -0.60028
H           8.91909        -0.25656        -0.13498
H           6.94315         0.93894         0.45246

