%chk=OdC1CdCCdCCdCc2ccccccccc21.chk
%NProcShared=20
# opt freq b3lyp/6-31g(2df,p)

Title Card Required 

0  1
O           5.01633        -0.46485         2.00853
C           7.02059        -0.51153         2.40382
C           4.65915        -0.35247         1.80555
C           6.06691        -0.24876         1.13141
C           5.58435        -0.69603         3.27359
C           7.38012        -0.75717         3.54993
C           7.52057        -0.97747         4.57462
C           8.53941        -0.79359         3.71094
C           9.05048        -1.05942         4.96141
C          10.41067        -1.08125         5.06216
C          10.85091        -1.34911         6.32146
C          12.28014        -1.43061         6.70021
C          12.93675        -1.65550         7.76065
C          14.28807        -1.58448         7.43486
C          15.11306        -1.76901         8.29767
C          13.99320        -1.35148         6.34064
C          12.09023        -1.08022         5.05184
C           9.52491        -0.80706         3.79306
H           2.82989        -0.43892         2.02990
H           5.00237        -0.05324         0.22420
H           4.47626        -0.75664         3.53886
H           7.69750        -0.33611         1.56629
H           6.61641        -1.01498         4.75224
H           9.20858        -0.52337         2.44264
H          11.22911        -0.86384         4.04165
H          10.91836        -1.54535         7.24456
H          13.27592        -1.11320         5.21229
H          13.10880        -1.83915         8.62539
H          15.57507        -1.34403         6.29977
H          15.28380        -2.05470         9.63769
H          15.80899        -1.54916         7.26462
H          13.88257        -1.26543         5.92189

