%chk=OdC1CdCc2cccscccccnc1c2.chk
%NProcShared=20
# opt freq b3lyp/6-31g(2df,p)

Title Card Required 

0  1
O           3.89687         1.81523        -1.79529
C           5.29202         2.65535        -2.60432
C           3.79632         1.41060        -1.40562
C           5.02659         0.85916        -0.87458
C           6.13543         1.70535        -1.68947
C           7.20728         1.44674        -1.44042
C           7.46568         2.29879        -2.26095
C           8.68848         2.29448        -2.25681
S           9.52894         3.11509        -3.04706
C          11.22972         3.25806        -3.18474
C          11.09971         4.07046        -3.96709
C          12.86007         4.48828        -4.36945
C          13.74967         5.54126        -5.38348
C          11.96507         4.83024        -4.69876
N           9.69039         4.44054        -4.32348
C           7.59213         3.61223        -3.52580
C           5.58730         2.88410        -2.82462
H           2.30182         1.65823        -1.64409
H           4.93475         0.14637        -0.18816
H           7.21514         0.82803        -0.84460
H           6.51547         3.30082        -3.22592
H           9.42085         1.90420        -1.88096
H          12.02243         2.93371        -2.87238
H          11.20795         5.47296        -5.31770
H          13.95771         3.94484        -3.84612
H          13.61863         6.29051        -6.10501
H          13.95780         4.92956        -4.79441
H           4.79199         3.57643        -3.49133

