%chk=Odc1cncccccc2cqdOrsnc-2s1.chk
%NProcShared=20
# opt freq b3lyp/6-31g(2df,p)

Title Card Required 

0  1
O           3.69933         0.19858        -0.00901
C           5.01547        -0.32497         0.04784
C           3.74998        -1.35006        -0.52758
N           4.83334        -1.78696        -0.70396
C           4.90590        -2.89862        -1.17816
C           6.13031        -3.06023        -1.25631
C           6.85319        -4.05696        -1.60037
C           7.99120        -3.69095        -1.05938
C           8.97059        -4.50977        -1.61106
C           9.89631        -3.52343        -1.84019
C          11.52652        -2.82790        -0.86020
O          11.86150        -1.66074        -0.60827
S          12.33801        -3.89456        -1.76887
N          10.48979        -3.14178        -1.51362
C           9.33326        -1.73471        -1.26617
S           7.41095        -0.68848        -0.60576
H           2.53135        -1.76011        -0.67773
H           4.16555        -3.51210        -1.43603
H           6.78718        -2.31593        -1.11789
H           6.47373        -4.85911        -2.09778
H           8.18329        -2.81340        -0.29526
H           8.78564        -5.38551        -2.24083

