%chk=Odc1ccccnc2cqccn1rCdCCdNC2.chk
%NProcShared=20
# opt freq b3lyp/6-31g(2df,p)

Title Card Required 

0  1
O           2.71902        -0.72029        -1.25022
C           3.78523        -1.49623        -1.35613
C           3.62120        -1.71215         0.05125
C           4.87219        -1.30533         0.27786
C           5.85720        -2.29013        -0.01884
C           7.09860        -1.93925        -0.41960
N           7.90551        -2.83026        -0.89122
C           9.07149        -3.22591        -1.30635
C           8.85372        -4.60754        -1.58125
C           7.38718        -4.73536        -1.92840
C           5.70270        -3.89830        -2.08167
N           4.45910        -2.93178        -1.98619
C          10.25729        -5.22240        -1.23459
C          11.28393        -5.83203        -1.86241
C          12.34501        -4.70228        -1.87703
N          12.00221        -3.42416        -1.78068
C          10.49896        -2.65548        -1.35687
H           2.86549        -2.51410        -0.18971
H           5.14385        -0.24277         0.07007
H           5.31747        -3.27392        -0.05508
H           7.44055        -0.93499        -0.42307
H           7.42273        -5.83224        -2.14723
H           5.09495        -4.83279        -2.00447
H          10.81222        -4.56362        -0.48094
H          11.20350        -6.69101        -2.52051
H          13.47466        -5.02400        -1.82932
H          10.41990        -1.74107        -1.92635
H          10.60116        -2.43755        -0.28224

