%chk=OdC1CdCNdNCdCCdC2CdCC1dCS2.chk
%NProcShared=20
# opt freq b3lyp/6-31g(2df,p)

Title Card Required 

0  1
O           5.04974        -0.61025         1.47771
C           6.91793        -0.82861         1.93442
C           4.76453        -0.82999         1.78900
C           6.46985        -0.69702         1.60346
N           5.17811        -1.30617         2.95905
N           6.09841        -1.51526         3.39966
C           6.74512        -1.86055         4.23846
C           7.86708        -1.75547         3.91762
C           8.66882        -2.20311         4.96265
C           9.93480        -2.13771         4.78153
C           9.90170        -1.31395         3.00368
C          11.25274        -1.34836         3.04394
C           9.19474        -1.25276         2.89741
C          10.55639        -1.89095         4.35927
S          11.00791        -2.71335         6.13679
H           3.16571        -0.89974         2.08861
H           5.60161        -0.13148         0.29764
H           6.27487        -2.17519         4.92798
H           8.01434        -1.13477         2.48546
H           8.55365        -2.58941         5.86185
H          10.82684        -1.04038         2.36578
H          12.67772        -1.26889         2.87493
H          11.80273        -2.30084         5.26345

