%chk=Odc1cccccc1-c1cscnnccc1C1dNCdC1.chk
%NProcShared=20
# opt freq b3lyp/6-31g(2df,p)

Title Card Required 

0  1
O          -2.52655        -0.42566         0.11467
C          -1.38083         0.01578        -0.02848
C          -0.48360        -1.20915        -0.06167
C           0.80127        -1.56441        -0.03203
C           1.89100        -0.67551         0.02450
C           1.65504         0.63721         0.04919
C           0.32815         1.38177        -0.03375
C          -1.01038         1.59702        -0.11006
C          -2.24335         2.98365        -0.24827
C          -3.19027         2.10431        -0.22549
S          -4.58788         2.73280        -0.18626
C          -6.13169         2.42331        -0.28469
N          -6.46651         3.60371        -0.34132
N          -7.47996         4.38791        -0.41185
C          -6.65803         5.58667        -0.39923
C          -4.64763         5.54401        -0.36088
C          -2.96822         4.73543        -0.29916
C          -1.04462         4.98757        -0.24126
N          -0.19286         5.99313        -0.25605
C           1.15497         5.31240        -0.19733
C           0.51591         4.15353        -0.20193
H          -1.13391        -2.08237        -0.10087
H           1.06798        -2.61894        -0.03248
H           2.90621        -1.10951         0.04381
H           2.62489         1.17688         0.10769
H           0.56153         2.31498         0.16170
H          -3.25173         1.10488        -0.14585
H          -6.73565         1.59813        -0.26526
H          -7.63504         6.44490        -0.52200
H          -5.75544         5.14070        -0.52878
H           2.36951         5.52525        -0.17061
H           1.51315         3.35857        -0.15980

