%chk=OdC1OCdCCdC2CdCNqCNC3dC1CdC3rNOCO2.chk
%NProcShared=20
# opt freq b3lyp/6-31g(2df,p)

Title Card Required 

0  1
O           4.43385         4.01593         3.24481
C           5.47795         3.28442         3.32116
O           5.05449         2.10033         2.42219
C           4.74018         0.62547         1.71695
C           5.26381        -0.24049         2.55753
C           6.70808         0.02724         2.60210
C           7.34303         0.32832         3.74277
C           6.59872         0.57587         4.96666
C           7.04441         0.67185         6.21445
N           8.33685         0.59063         6.65223
C           9.19845         1.77822         6.65695
N           8.32369         2.95026         6.45990
C           7.68706         3.57580         5.51124
C           6.81861         3.86735         4.42299
C           7.43996         5.32259         4.69506
C           7.29253         4.96237         5.94326
N           8.88160        -0.70783         6.63567
O           8.55902        -1.42425         5.38544
C           9.27103        -0.81729         4.29235
O           8.72132         0.42203         3.78086
H           4.87841         0.52763         0.63278
H           4.73103        -0.02897         3.48952
H           7.22160         0.09961         1.63892
H           5.53160         0.71886         4.92756
H           6.34817         0.94670         7.00016
H          10.10795         1.73113         6.04125
H           9.60401         1.82532         7.69373
H           7.60295         2.64746         7.09820
H           8.40365         6.00661         5.10107
H           7.54166         5.54168         6.88780
H           8.31102        -1.26530         7.28403
H           9.32980        -1.53980         3.46910
H          10.29485        -0.63134         4.62764

