%chk=OdC1CdCC2dCCdNN3CdCCdCC3dCC2dC1.chk
%NProcShared=20
# opt freq b3lyp/6-31g(2df,p)

Title Card Required 

0  1
O           1.36013        -0.44625        -0.11884
C           2.57679        -0.33542        -0.01940
C           3.13623         1.02596        -0.06068
C           4.41977         1.12448         0.24163
C           5.24410        -0.00731         0.70513
C           6.27224         0.44288         1.39642
C           6.80445        -0.59770         2.20634
N           8.01643        -0.88493         2.17428
N           8.04433        -2.17097         2.52898
C           8.82279        -2.45819         3.64900
C           9.36661        -3.63831         3.93174
C           9.20899        -4.61885         2.88376
C           8.31190        -4.46188         1.84041
C           7.35146        -3.14401         1.66567
C           6.10381        -2.87020         0.84689
C           4.91997        -1.52649         0.56730
C           3.58569        -1.57938         0.14266
H           2.50908         1.89603        -0.28488
H           4.84108         2.13108         0.28114
H           6.63292         1.44135         1.54423
H           6.04115        -1.29831         2.63343
H           8.98915        -1.60927         4.30734
H          10.00046        -3.77486         4.81305
H           9.96388        -5.41278         2.98730
H           8.46671        -5.18990         1.04517
H           5.69294        -3.70148         0.25026
H           2.98311        -2.44841        -0.11692

