%chk=Odc1cccnc2cqccs1rdCCd2.chk
%NProcShared=20
# opt freq b3lyp/6-31g(2df,p)

Title Card Required 

0  1
O           2.75998         0.70003        -0.71978
C           3.63782         0.09112        -0.09929
C           3.12353        -0.89162         0.90212
C           4.22577        -1.34821         1.36739
C           4.78561        -2.23215         2.26812
N           6.00389        -2.00386         2.03550
C           6.93810        -2.59933         2.64229
C           8.19792        -2.22845         2.26436
C           8.24420        -1.11498         1.12973
C           7.43520        -0.29267         0.29179
S           5.69729         0.46559        -0.48088
C           8.65922        -3.13513         3.18827
C           7.29321        -3.48813         3.54797
H           2.16686        -1.24342         1.26061
H           5.06626        -0.90432         0.91507
H           4.27635        -2.88525         2.93364
H           9.33898        -1.00923         1.02196
H           8.15076         0.29006        -0.30202
H           9.55780        -3.56140         3.62263
H           6.51845        -4.02831         4.09842

