%chk=OdC1CdCCdCCdCC2dCCdCCdS12.chk
%NProcShared=20
# opt freq b3lyp/6-31g(2df,p)

Title Card Required 

0  1
O           5.41830        -3.05792        -1.38029
C           5.58539        -2.39351        -2.34874
C           4.26504        -1.18694        -2.03785
C           4.54881         0.09063        -1.71098
C           5.24496         0.26427        -2.93816
C           6.54763         0.19786        -2.77167
C           7.19468        -0.21243        -3.91534
C           8.46525        -0.45853        -3.73268
C           8.38562        -1.52092        -4.60014
C           8.36321        -1.25006        -6.06067
C           9.08883        -1.91342        -6.97866
C           9.60646        -2.95697        -6.29149
C           9.15425        -3.50050        -4.85080
S           7.47951        -3.06676        -3.55692
H           3.16760        -1.18384        -2.27230
H           5.15024         0.25596        -0.80312
H           4.83262        -0.32859        -3.82540
H           7.02689        -0.05836        -1.82056
H           6.54954        -0.79488        -4.66036
H           9.05005        -0.47907        -2.81757
H           8.00606        -0.27736        -6.39225
H           9.35134        -1.52888        -7.98256
H          10.56552        -3.26814        -6.78114
H          10.11545        -3.73988        -4.33323

