%chk=OdC1[C]CdCCdc2ccccc2dCCdC1.chk
%NProcShared=20
# opt freq b3lyp/6-31g(2df,p)

Title Card Required 

0  1
O           1.51084         0.52312        -0.09636
C           2.58948         0.99264        -0.26539
C           3.66083         0.94159         0.74606
C           5.05629         0.58292         0.64497
C           5.89417         1.37719        -0.03677
C           7.18663         1.15035        -0.61955
C           7.75880         2.07836        -1.41487
C           9.24519         2.09440        -1.30890
C           9.98966         3.18293        -1.54602
C           9.37219         4.32230        -2.18632
C           8.03896         4.35039        -2.52089
C           6.98410         3.17656        -2.11760
C           5.56563         3.15655        -2.35178
C           4.10203         2.29838        -1.96965
C           3.46984         1.08782        -1.62200
H           5.30773        -0.46338         0.68865
H           5.55815         2.38040        -0.24502
H           7.78965         0.35758        -0.19767
H           9.73987         1.22532        -0.89069
H          11.06710         3.17894        -1.33250
H          10.11685         5.08843        -2.46407
H           7.76352         5.19977        -3.14817
H           5.20004         4.14239        -2.68843
H           3.34398         3.09002        -1.94642
H           3.84308         0.04535        -1.51995

