%chk=Odc1ccccccc2cqnc1rCdCNS2.chk
%NProcShared=20
# opt freq b3lyp/6-31g(2df,p)

Title Card Required 

0  1
O           2.60475         0.01540         0.00909
C           4.05172         0.15405        -0.12619
C           3.05061         1.09261        -1.04193
C           4.23223         1.30288        -1.24710
C           4.88215         2.09212        -2.01715
C           6.10332         2.26445        -2.18530
C           7.07828         2.89570        -2.80121
C           8.42070         2.69699        -2.60732
C           9.17355         3.69921        -3.58519
C           9.22276         2.59370        -2.50654
N           7.85596         1.33483        -1.27827
C           6.33107         0.54293        -0.50562
C          10.91406         3.41946        -3.31223
C          12.32566         4.10228        -3.97847
N          12.15490         5.32225        -5.16879
S           9.92116         5.22319        -5.07213
H           2.27895         1.62415        -1.56056
H           4.97951         0.91342        -0.86710
H           4.37759         2.67556        -2.58641
H           6.41813         1.63549        -1.57162
H           6.64401         3.54789        -3.43754
H           9.25853         1.61558        -1.55219
H           5.60544        -0.40481         0.41909
H          11.19590         4.34291        -4.21325
H          13.45917         3.94487        -3.82488
H          13.37646         5.72507        -5.56181

