%chk=OdC1NCdCC2dCC2dNNdNS1.chk
%NProcShared=20
# opt freq b3lyp/6-31g(2df,p)

Title Card Required 

0  1
O           1.55170        -0.55252        -0.15893
C           2.75773        -0.29038        -0.10096
N           3.07846         1.02750         0.19050
C           4.34861         1.36647         0.26546
C           5.01262         2.47488         0.51059
C           6.41025         2.34390         0.48163
C           7.57809         2.78687         0.57959
C           7.48171         1.30521         0.25191
N           6.65975         0.32468         0.03507
N           6.76787        -0.98735        -0.25509
N           5.70788        -1.69719        -0.41208
S           3.99896        -1.63543        -0.39842
H           2.36148         1.72350         0.34442
H           4.86338         0.48071         0.06957
H           4.53631         3.41018         0.71744
H           7.92146         3.77259         0.79759

