%chk=OdC1CdCCdCCdC2CC2CqOrCCCCdN1.chk
%NProcShared=20
# opt freq b3lyp/6-31g(2df,p)

Title Card Required 

0  1
O           3.93249        -1.76176         2.46569
C           4.91127        -1.20687         3.35616
C           3.85936        -0.03670         2.21632
C           4.67120         0.60985         1.35802
C           5.49212         0.82236         2.53683
C           6.77027         0.46062         2.57812
C           7.50777         0.44344         3.81110
C           8.82206         0.32717         3.85977
C           9.99977         0.29297         3.08882
C          10.01268         0.27527         4.62894
C          10.47915        -0.88760         5.34813
O          11.81897        -1.22237         5.08298
C          10.44537        -0.46137         6.73975
C          10.53774        -1.81982         7.42524
C           8.90229        -1.34616         7.64770
C           7.48351        -1.19523         5.96995
N           6.24408        -1.52200         4.83623
H           2.69731         0.27944         2.33319
H           5.01760         0.13200         0.39411
H           4.87896         0.74410         3.54549
H           7.19249         0.16057         1.63676
H           6.88935         0.49753         4.72450
H          10.29766         1.18247         2.57147
H          10.38101        -0.52699         2.49361
H          10.36811         1.12665         5.20375
H           9.83958        -1.76322         5.20774
H          12.36737        -0.46339         5.34270
H           9.50272         0.17658         6.91643
H          11.11448         0.30042         7.16225
H          11.71506        -1.86316         7.56505
H          10.30975        -2.85420         7.35136
H           8.96399        -1.29242         8.95522
H           9.92188        -0.78373         8.43940
H           7.99016        -2.33418         6.54293

