%chk=Odc1cnn2cc3cqcccccccc1c2rCNCdC3.chk
%NProcShared=20
# opt freq b3lyp/6-31g(2df,p)

Title Card Required 

0  1
O           1.57736        -0.05653        -0.22514
C           2.74904         0.35334        -0.22809
C           3.32204         1.41604         0.62181
N           4.62021         1.27430         0.98206
N           5.33533        -0.22115         0.61017
C           6.61199        -0.50794        -0.15427
C           7.52659        -1.44253        -0.68720
C           8.74224        -0.72820        -1.18484
C           9.43490         0.27973        -1.45389
C           8.82613         1.50827        -1.32076
C           9.42645         2.61569        -1.47673
C           8.41813         3.56722        -1.15107
C           7.35441         3.58199        -2.00336
C           5.90416         2.69772        -1.39696
C           4.78883         1.63478        -1.61444
C           3.95852         0.08055        -1.06703
C           4.38547        -0.84112        -0.13460
C           9.53930        -1.83119        -1.29153
N          10.65315        -2.55441        -1.46618
C           9.52872        -3.60622        -1.10394
C           8.01149        -3.19534        -0.74447
H           2.63578         2.31037         0.57925
H           6.65927         0.46470        -0.59451
H          10.49170         0.27491        -1.66202
H           7.80284         1.49567        -1.05102
H          10.47647         2.68207        -1.75961
H           8.00841         3.32241        -0.16789
H           7.71097         4.70777        -2.05864
H           5.55376         3.74015        -1.20269
H           4.64086         0.93716        -2.44607
H           4.71360        -1.89034        -0.18451
H           8.99725        -2.18156        -2.27791
H           9.52043        -1.98831        -0.09729
H          11.06056        -1.61056        -1.59964
H          10.28448        -4.38794        -1.26933
H           7.09009        -3.72768        -0.54517

