%chk=Odc1cccccccnc2cccncccc-2c1.chk
%NProcShared=20
# opt freq b3lyp/6-31g(2df,p)

Title Card Required 

0  1
O           3.80595        -0.71672         0.57118
C           5.87288        -1.40184         1.12602
C           3.37717        -1.08736         0.87123
C           4.95067        -1.06826         0.85576
C           5.52696        -2.52762         2.03721
C           6.94024        -2.65491         2.14025
C           7.24546        -3.52043         2.84095
C           8.71555        -3.53662         2.85395
C           9.26760        -4.13722         3.34029
N          10.56671        -4.04989         3.26960
C          11.28104        -5.00757         4.04471
C          12.35962        -4.76385         3.84759
C          12.59458        -6.09026         4.92140
C          14.43079        -4.87534         3.93784
N          14.44931        -6.51454         5.26488
C          15.12802        -5.81917         4.70194
C          15.13323        -6.80625         5.50105
C          13.41195        -5.40727         4.36714
C          10.94455        -3.86108         3.13319
C           8.62739        -2.45512         1.94802
H           2.50061        -1.67802         1.34940
H           5.28939         0.22898        -0.19444
H           4.58704        -2.70688         2.18234
H           7.64310        -1.51293         1.21581
H           6.57074        -3.86256         3.11793
H           9.75517        -2.33484         1.88107
H           8.79689        -4.74901         3.83557
H          13.13520        -4.16418         3.36211
H          13.01847        -6.80274         5.49819
H          15.52552        -5.03881         4.07018
H          17.16450        -6.21574         5.02298
H          16.57809        -8.08059         6.53269
H          15.62032        -6.45708         5.21836
H           6.75239        -1.47170         1.19784

