%chk=Odc1ccccc2c1dCCdCCdCCd2.chk
%NProcShared=20
# opt freq b3lyp/6-31g(2df,p)

Title Card Required 

0  1
O           5.03990        -0.30614         2.11020
C           6.74693        -0.44235         3.27757
C           4.68413        -0.30363         2.08868
C           5.57533        -0.16389         0.89096
C           5.52661        -0.43309         3.19826
C           7.43907        -0.30973         2.14091
C           7.39618        -0.51739         3.92075
C           9.22490        -0.50165         3.78585
C          10.85890        -0.67792         5.29657
C          12.52689        -0.76234         6.02011
C          10.75498        -0.74508         5.87224
C           8.79717        -0.66091         5.15084
C           9.34145        -0.75512         5.95825
C           8.85451        -0.50183         3.78741
H           2.87463        -0.29969         2.05488
H           4.83171        -0.07917         0.16487
H           4.50940        -0.47945         3.59554
H           7.13054        -0.22409         1.40699
H          11.97816        -0.85588         6.82187
H          13.38485        -0.68243         5.33528
H          10.81150        -0.90459         7.23928
H          10.40858        -0.54804         4.18345
H           8.56167        -0.80039         6.34628
H           9.20639        -0.34029         2.40283

