%chk=OdC1CdCCdCCdCCdNCdCqOrCqdOrCdC1.chk
%NProcShared=20
# opt freq b3lyp/6-31g(2df,p)

Title Card Required 

0  1
O           3.70737         0.46199         0.36808
C           5.40108         1.05709         0.94249
C           3.25529         1.13000         1.01287
C           4.70081         1.28139         1.15900
C           5.03584         2.26975         2.11300
C           6.25934         2.35236         2.19273
C           7.01729         3.08932         2.90407
C           8.23074         3.30081         3.10820
C           8.82231         4.06313         3.84402
N           9.87983         3.94475         3.72976
C          10.96785         4.61979         4.38133
C          12.68325         4.54405         4.30822
O          13.58212         3.80413         3.59403
C          11.34070         4.05409         3.83529
O          12.14704         5.27815         5.01680
C           9.65222         2.64345         2.47370
C           7.84144         1.62914         1.49466
H           2.44280         1.71397         1.57654
H           5.14671         0.08610         0.00526
H           4.42309         2.73192         2.55910
H           7.43674         2.52432         2.35871
H           6.58959         3.66546         3.46018
H           8.79416         2.11206         1.96079
H           8.67409         4.67722         4.43676
H          10.68316         5.49559         5.22668
H          12.99399         3.25839         3.06727
H          11.13729         3.17577         2.98751
H           6.75531         0.69911         0.59697

