%chk=Odc1[nH]c2cccc-2c2cc1CdC2.chk
%NProcShared=20
# opt freq b3lyp/6-31g(2df,p)

Title Card Required 

0  1
O           2.51225        -2.20258        -0.63846
C           3.34433        -2.04474         0.18358
N           3.38815        -0.82879         0.93503
C           4.47859        -0.42550         1.67887
C           5.21957         0.59569         1.19552
C           6.61971         0.24633         1.32822
C           6.74014        -0.92310         1.99070
C           5.37932        -1.38332         2.35781
C           5.00440        -2.68002         2.65062
C           3.71086        -3.14969         2.09376
C           4.08994        -3.26116         0.80003
C           5.56610        -3.68625         0.85687
C           5.93400        -3.72672         2.17274
H           2.55255        -0.81206         1.53169
H           4.87110         1.30959         0.46007
H           7.38746         0.71122         0.72065
H           7.62899        -1.53569         1.95784
H           2.73457        -2.84011         2.42366
H           6.31104        -3.21080         0.21567
H           5.63984        -4.61095         2.77532

