%chk=OdC1CdC2NdCCCdNNN2C1.chk
%NProcShared=20
# opt freq b3lyp/6-31g(2df,p)

Title Card Required 

0  1
O           1.38642         0.27382        -0.09479
C           2.57978         0.12695         0.03509
C           3.19955        -1.19752         0.09100
C           4.46773        -0.97674         0.45960
N           5.25503        -2.04178         0.75855
C           6.41610        -1.72285         0.31506
C           7.64927        -2.08845         0.98223
C           8.13244        -0.70513         1.38451
N           7.46536         0.43622         1.49446
N           6.03997         0.76835         1.55132
N           4.90725         0.38271         0.49322
C           3.66993         1.21388         0.14296
H           2.69927        -2.13386        -0.05618
H           6.58089        -0.89571        -0.41445
H           8.27968        -2.52541         0.19607
H           7.57849        -2.80626         1.80346
H           9.24136        -0.67262         1.53334
H           6.04936         1.79905         1.60371
H           3.73497         1.61044        -0.88205
H           3.32666         1.98566         0.84124

