%chk=OdCC1dNNdc2cccnc2dNNdC1.chk
%NProcShared=20
# opt freq b3lyp/6-31g(2df,p)

Title Card Required 

0  1
O           1.05768        -0.38436         0.01040
C           2.26583        -0.26363         0.02888
C           3.27819        -1.39693        -0.02470
N           4.44459        -0.84045        -0.07538
N           5.13637        -1.90988        -0.27461
C           6.35079        -2.02834        -0.19743
C           7.27950        -0.95128        -0.03198
C           8.46161        -1.32005         0.42377
C           8.84630        -2.74723         0.19756
N           8.05098        -3.76243        -0.04299
C           6.67809        -3.45616        -0.12023
N           5.66833        -4.32637        -0.09674
N           4.05675        -4.05316        -0.12969
C           3.17681        -3.01879        -0.09281
H           2.76115         0.73717         0.05893
H           6.84307         0.03082        -0.09062
H           9.12925        -0.58027         0.84120
H           9.95053        -2.86567         0.18857
H           2.11252        -3.32849        -0.12615

