%chk=OdCc1ccccccn2cc-2ccccccc2ccccccc-2c1.chk
%NProcShared=20
# opt freq b3lyp/6-31g(2df,p)

Title Card Required 

0  1
O           2.28167         0.01961        -0.31542
C           3.10843         0.43449         0.52569
C           4.96154         0.39861         0.66878
C           4.89718        -0.58420        -0.74217
C           5.25155        -1.31703        -1.85217
C           6.64648        -1.53529        -2.14386
C           7.17441        -2.26972        -3.13392
C           8.57761        -2.31988        -3.19058
C           9.42801        -2.93298        -4.02040
N          10.71963        -2.83303        -3.88132
C          11.89423        -3.16743        -4.34118
C          11.88945        -2.34366        -3.21744
C          11.41958        -1.51933        -2.09102
C          11.95278        -0.78936        -1.08970
C          11.16385        -0.05462        -0.09360
C          11.72212         0.69021         0.88134
C          10.74121         1.28760         1.69745
C          10.59626         2.05196         2.75070
C           8.91604         1.89182         3.19563
C           9.14464         2.25191         4.48746
C           8.75180         3.17347         5.53114
C           8.13532         4.35723         5.38065
C           7.75897         5.00731         4.10676
C           8.42821         4.87166         2.94873
C           8.04378         3.68168         1.94358
C           7.52468         2.31938         2.10248
C           6.20028         1.42720         0.99750
H           2.63002         0.86886         1.38576
H           5.81958        -0.85113        -0.23742
H           4.62027        -1.82858        -2.61543
H           7.30286        -1.00536        -1.44702
H           6.65172        -2.82979        -3.88510
H           8.94733        -1.73806        -2.39099
H           9.06739        -3.53780        -4.84756
H          12.15754        -3.77146        -5.16591
H          10.38795        -1.38273        -1.90766
H          13.00701        -0.68278        -0.95126
H          10.05311        -0.06275        -0.11014
H          12.78506         0.79606         1.05379
H           9.75401         0.97025         1.45666
H          11.52988         2.45171         3.25784
H           9.63116         1.38445         4.93879
H           9.06197         2.88557         6.55519
H           7.78743         4.86123         6.29094
H           6.78224         4.58131         3.89546
H           8.83771         5.74930         2.40469
H           9.19676         3.72617         2.29779
H           6.09375         1.94938         0.02668

