%chk=OdCCdCCCCC1dCCdCCdCOCdCNdC1.chk
%NProcShared=20
# opt freq b3lyp/6-31g(2df,p)

Title Card Required 

0  1
O           0.96201        -0.02364         0.08874
C           2.18779        -0.03676         0.09771
C           2.97968        -1.08074         0.81115
C           4.32446        -1.11310         0.83326
C           5.15069        -2.19442         1.57222
C           6.81047        -1.95763         1.41040
C           8.34549        -2.94009         2.08181
C          10.48033        -2.76429         1.96201
C           9.81051        -3.80405         2.67129
C          11.07367        -3.88350         2.72651
C          11.98152        -4.57009         3.19572
C          13.34750        -4.22274         2.95844
C          13.57916        -5.34594         3.72591
O          14.65894        -4.85791         3.39247
C          15.84292        -5.24446         3.65658
C          16.41174        -4.26845         2.98955
N          14.81759        -3.39452         2.39200
C          12.80356        -2.86273         2.02853
H           2.75550         0.74031        -0.43333
H           2.42513        -1.84628         1.33431
H           4.86922        -0.34044         0.30524
H           4.84180        -3.15889         1.15658
H           4.84180        -2.15758         2.62180
H           6.88037        -0.96405         1.82190
H           6.88037        -1.98002         0.33522
H           7.41750        -3.95836         1.74450
H           7.41750        -2.99579         3.15303
H           9.37460        -4.61466         3.22669
H          11.65687        -3.31808         2.34022
H          11.62205        -5.34333         3.72414
H          13.97963        -2.77112         1.96693
H          14.15668        -6.09848         4.24020
H          16.22481        -6.16704         4.28705
H          17.94503        -4.48670         3.13872
H          12.12606        -1.90664         1.37554

