%chk=OdCCNdC1CqdSrCd[SH]1dS.chk
%NProcShared=20
# opt freq b3lyp/6-31g(2df,p)

Title Card Required 

0  1
O           0.99364         0.06968        -0.00419
C           2.22429         0.07848        -0.01263
C           3.02392        -0.08885        -1.27911
N           4.46218        -0.05882        -0.96317
C           5.22497        -0.14644        -1.99274
C           6.67044        -0.18338        -2.16710
S           7.93404        -0.08959        -1.17222
C           6.63440        -0.38134        -3.61249
S           4.92910        -0.35825        -3.66844
S           4.37256         1.18593        -4.50039
H           2.79357         0.21907         0.91959
H           2.74744         0.74077        -1.93583
H           2.74838        -1.05038        -1.72538
H           7.50011        -0.48095        -4.27083
H           4.35960        -1.52411        -4.02178

