%chk=OdCCtCC1dCCdCCdCCdC1.chk
%NProcShared=20
# opt freq b3lyp/6-31g(2df,p)

Title Card Required 

0  1
O           1.14469        -0.11041        -0.03125
C           2.37237        -0.10296        -0.03016
C           3.11661        -1.31004         0.21217
C           3.76854        -2.41700         0.43505
C           4.52854        -3.70746         0.69486
C           4.43009        -4.88565         0.06119
C           5.43426        -5.93013         0.27847
C           5.66495        -6.51465         1.46915
C           4.91333        -6.18395         2.66750
C           4.98664        -4.98624         3.27381
C           5.84237        -3.92774         2.78633
C           5.65575        -3.37679         1.57906
H           2.96611         0.80383        -0.21160
H           3.65311        -5.08999        -0.66502
H           6.08593        -6.15476        -0.56406
H           6.48705        -7.21588         1.59252
H           4.21837        -6.93678         3.02345
H           4.34314        -4.74488         4.11405
H           6.67238        -3.61428         3.41126
H           6.32947        -2.59827         1.22410

