%chk=OdCC1dCCdCSCdCCdCSCdCCdC1.chk
%NProcShared=20
# opt freq b3lyp/6-31g(2df,p)

Title Card Required 

0  1
O           2.50972         0.79276         0.07570
C           4.13302         1.56555         0.10012
C           6.11661         3.20237         0.15185
C           5.00655         1.60332         0.10132
C           5.63920         2.84429         0.14053
C           7.42939         2.34642         0.12480
S           8.80689         2.81338         0.13956
C          10.26897         3.15671         0.15040
C           9.90459         4.24499         0.18479
C          11.45470         4.05070         0.17866
C          12.06113         5.01768         0.20921
S          14.11367         4.75204         0.20082
C          14.65691         6.55192         0.25769
C          12.78584         6.38526         0.25243
C          10.42748         5.73682         0.23194
C           8.20225         4.67369         0.19834
H           3.31907        -0.12427         0.04673
H           5.10717         0.32506         0.06092
H           4.95752         4.09097         0.17993
H           7.15996         1.47621         0.09730
H           9.65864         2.47789         0.12895
H           9.09954         5.80092         0.23396
H          12.11401         3.37011         0.15715
H          11.29915         6.74011         0.26364
H          14.42606         7.85246         0.29879
H          14.66592         6.25913         0.24844
H          12.20634         6.35294         0.25141
H           6.61799         4.79138         0.20206

