%chk=OdCc1ccccc2sccscc1-2.chk
%NProcShared=20
# opt freq b3lyp/6-31g(2df,p)

Title Card Required 

0  1
O           2.81173         0.23934        -0.89774
C           4.40617         0.37464        -1.46554
C           6.48013         0.66710        -2.69293
C           5.22738         0.36876        -1.44088
C           6.02319         0.66719        -2.69334
C           7.88964         0.58236        -2.33731
C           6.89824         1.01348        -4.14661
C           7.92419         1.06004        -4.34202
S           8.79623         1.27889        -5.26048
C          10.86851         0.92733        -3.78507
C          10.94611         1.36126        -5.60616
S          12.89027         1.40431        -5.78682
C          10.51815         1.26759        -5.21305
C           8.77965         0.91734        -3.74313
H           3.47141         0.02626        -0.00351
H           5.19742         0.07058        -0.18951
H           4.67660         0.82709        -3.36438
H           7.37629         0.35058        -1.36458
H           6.45151         1.19309        -4.90037
H          11.93718         0.99176        -4.05548
H          11.30910         1.72796        -7.14511
H          12.12400         1.49565        -6.17018

