%chk=OdCC1dCCdC2CdCCdCCdCCdS12.chk
%NProcShared=20
# opt freq b3lyp/6-31g(2df,p)

Title Card Required 

0  1
O           1.19297         0.12205        -0.09466
C           2.35892         0.15709        -0.50518
C           2.79279         1.16189        -1.62216
C           2.69402         2.41980        -1.16011
C           3.71483         3.22852        -1.74712
C           4.72413         2.50161        -2.17834
C           6.05121         2.80165        -2.55951
C           6.31600         3.96534        -3.05284
C           7.45449         3.96442        -3.92989
C           7.28890         4.77435        -4.96331
C           6.93781         3.89887        -6.05260
C           5.80586         3.09468        -5.94446
C           4.47936         2.39957        -4.83337
S           4.24201         1.01304        -3.02868
H           3.11925        -0.42159         0.07747
H           2.15281         2.75216        -0.26682
H           3.66323         4.30893        -1.65952
H           6.63353         1.91011        -2.85331
H           5.47142         4.65442        -3.24011
H           7.79337         2.93982        -4.19651
H           6.72164         5.70669        -4.87184
H           7.78695         3.88925        -6.77087
H           5.15653         3.85958        -6.43707
H           4.73879         1.38090        -5.22502

