%chk=OdCCC1dCCdCCdCSCdCdCdCCdC1.chk
%NProcShared=20
# opt freq b3lyp/6-31g(2df,p)

Title Card Required 

0  1
O           1.67123         0.27685         0.25637
C           3.10861         0.15497         0.28291
C           5.04129         0.72443         1.09115
C           7.25345         0.75255         1.70175
C           6.00239         1.68464         1.50873
C           7.10974         2.02602         0.74687
C           7.81739         2.86432         1.51918
C           9.19017         2.90646         1.20209
C          10.06569         3.36640         2.09946
S          11.58571         3.87247         1.47268
C          12.54983         4.20150         2.86127
C          13.82066         4.22006         2.88542
C          14.65676         3.43335         2.75614
C          13.52670         2.31206         2.16579
C          11.48219         1.45699         2.00313
C           9.54500         0.97198         1.95116
H           2.93707        -0.65181        -0.48007
H           3.71096         0.99698         1.80645
H           3.92328         1.74370         0.64272
H           5.23176         2.60794         1.80196
H           7.43368         1.21399        -0.08457
H           7.34100         3.29603         2.38597
H           9.66557         2.13700         0.44045
H           9.68727         3.90478         2.89360
H          12.18427         4.86904         3.50656
H          15.01615         2.88191         1.95429
H          12.90258         1.59193         2.66163
H           8.94129         0.29058         1.02599

