%chk=OdCC1dCCdCCdCCdS2CdCC2dCCdCCdN1.chk
%NProcShared=20
# opt freq b3lyp/6-31g(2df,p)

Title Card Required 

0  1
O           2.29532         1.42181        -0.60026
C           3.54996         1.49508        -0.14686
C           4.98780         2.48905        -0.55757
C           4.88296         1.31100        -1.25963
C           5.27197         1.12453        -2.61183
C           6.59788         1.02597        -2.67005
C           7.25227         1.72736        -3.70475
C           8.57555         1.80491        -3.61146
C           9.32175         2.38263        -4.70003
S          11.07307         2.14820        -4.47136
C          11.57799         2.14708        -6.08108
C          12.14728         3.38087        -6.03110
C          11.45382         3.80866        -4.79698
C          11.13263         4.90135        -4.01834
C          10.10562         4.57088        -2.78536
C           8.86213         4.97434        -2.28048
C           7.38631         4.24484        -1.25061
N           6.27717         3.32221        -1.41171
H           3.71108         0.56842         0.52388
H           4.99957         0.31692        -0.73711
H           4.63018         1.54461        -3.37231
H           7.13107         0.79838        -1.74065
H           6.67042         2.24037        -4.45734
H           9.11289         1.39251        -2.76805
H           8.79816         2.88242        -5.53507
H          11.57579         1.29786        -6.76020
H          12.73150         3.85425        -6.82836
H          11.68431         5.82545        -4.28316
H          10.41764         3.59428        -2.45078
H           9.09889         6.05549        -2.02437
H           7.48638         4.84981        -0.31148

