%chk=OdCc1sc2ccc3ccnc-3cnc1-2.chk
%NProcShared=20
# opt freq b3lyp/6-31g(2df,p)

Title Card Required 

0  1
O           2.01047        -0.90787        -0.01706
C           3.16619        -0.53422         0.24718
C           4.50642        -1.12658        -0.24335
S           5.19805        -0.47892        -1.70987
C           5.75497        -2.13956        -1.37245
C           6.71974        -2.74381        -2.05096
C           7.39329        -3.99313        -1.77190
C           8.66541        -3.90910        -1.49282
C           9.77745        -4.74472        -1.88449
C          10.86121        -4.01154        -1.61348
N          10.58035        -2.78041        -0.96859
C           9.25038        -2.71891        -0.83826
C           8.43202        -1.60649        -0.03035
N           7.17737        -1.27045         0.38234
C           5.74566        -1.75040         0.05079
H           3.22936         0.51237         0.59437
H           7.41129        -1.96801        -2.39796
H           6.96605        -4.90681        -2.17849
H           9.73580        -5.70121        -2.39091
H          11.88140        -4.35209        -1.84798
H           9.15516        -0.80879         0.24405

