%chk=OdCCc1ccccc2ccccccccsc-2cnccc1.chk
%NProcShared=20
# opt freq b3lyp/6-31g(2df,p)

Title Card Required 

0  1
O           1.10164         0.04651         0.02261
C           2.33376         0.06865         0.04483
C           3.11497         0.99716         0.98653
C           4.59818         1.05972         1.02658
C           5.67221         1.84764         1.86183
C           7.30015         1.28248         1.29186
C           8.15954         2.03015         2.03367
C           9.98570         2.18699         2.18937
C          11.35519         3.02529         3.15201
C          12.09473         2.30750         2.30981
C          13.20550         2.95697         2.79957
C          14.18490         2.39068         2.38613
C          14.19331         3.20752         3.19960
C          15.22944         2.85292         3.35508
C          15.25899         4.30356         4.93451
C          17.22225         3.92546         4.04456
C          18.23953         4.58058         4.62313
S          16.04956         4.25076         3.52932
C          13.09944         3.74352         4.23720
C          11.12482         4.12990         4.02597
N           9.13764         4.44129         4.46150
C           7.36455         4.42084         4.48727
C           5.93234         3.39700         3.50731
C           5.66721         2.20494         2.04496
H           2.89407        -0.59344        -0.62751
H           2.83957         0.73529         1.99296
H           2.83882         2.00610         0.74206
H           4.45135         2.58532         2.62293
H           7.37678         0.54138         0.52555
H           7.56104         2.65861         2.67690
H           9.80459         1.22461         1.22740
H          12.07710         1.56922         1.57175
H          14.22659         4.22460         3.76038
H          14.55429         1.82949         1.83650
H          13.90488         4.63132         4.62377
H          16.66764         2.60407         2.64187
H          16.62693         5.09031         5.17040
H          18.62987         3.40547         3.44194
H          19.20417         5.31152         5.35355
H           9.61311         3.59449         3.61116
H           5.93557         3.92059         3.93126
H           5.64901         4.65641         4.70344
H           5.46181         0.85361         0.92744

