%chk=OdCqSrCdCC1dCCqdSrNdC1.chk
%NProcShared=20
# opt freq b3lyp/6-31g(2df,p)

Title Card Required 

0  1
O           1.12183        -0.04859        -0.11788
C           2.34759        -0.03730        -0.12313
S           3.25117         0.39487        -1.55742
C           3.11760        -0.40074         1.09648
C           4.45551        -0.41161         1.22697
C           5.11223        -0.80449         2.43606
C           4.88036        -1.86518         3.20990
C           5.83249        -1.83537         4.33764
S           5.86469        -2.94199         5.58186
N           6.65550        -0.74618         4.16156
C           6.25528        -0.16415         3.07946
H           2.19600         0.63474        -2.34607
H           2.47635        -0.67084         1.93453
H           5.10896        -0.13158         0.40493
H           4.13486        -2.62931         3.07126
H           6.70594         0.74469         2.65352

