%chk=ON1CdNCdNCdCCdCNdCC2dCC2dC1.chk
%NProcShared=20
# opt freq b3lyp/6-31g(2df,p)

Title Card Required 

0  1
O           3.12394         0.45624        -0.45881
N           5.40765         0.92323        -0.89574
C           3.33215         0.95903        -0.92814
N           4.54258         1.22358        -1.17660
C           5.06555         2.13391        -2.01949
N           6.13377         2.48301        -2.35828
C           7.00691         3.06479        -2.88963
C           8.11539         2.83884        -2.68199
C           8.57877         3.69778        -3.48351
C           9.72765         3.63381        -3.42407
N          10.83569         4.81404        -4.52467
C          12.13616         4.57140        -4.29793
C          10.96614         4.10576        -3.86323
C          11.77863         3.55689        -3.35069
C           9.69500         2.52989        -2.39201
C           7.66704         1.67146        -1.59211
H           1.46870         0.54029        -0.53721
H           2.54881         1.61199        -1.53699
H           4.41394         2.55728        -2.41578
H           6.50477         3.56827        -3.36143
H           8.92197         1.79941        -1.71231
H           8.64177         4.39258        -4.13133
H          11.04775         2.78740        -2.63406
H          13.39093         3.67487        -3.46150
H          13.35909         4.43096        -4.16891
H           6.38737         0.83554        -0.81272

