%chk=ONC1dCCdCCdCSc2ccccc2S1.chk
%NProcShared=20
# opt freq b3lyp/6-31g(2df,p)

Title Card Required 

0  1
O           1.59564        -0.91887        -0.06980
N           3.34210        -1.42469        -0.26085
C           4.73892        -2.80183        -0.52746
C           5.22906        -1.56702        -0.11034
C           5.78127        -2.16363         0.99433
C           7.07762        -2.13663         0.93389
C           7.57841        -3.33548         1.54698
C           8.85314        -3.44343         1.35163
S           9.26878        -5.19457         1.86631
C          10.09991        -4.46926         0.52299
C          11.56173        -3.56708         1.03624
C          12.81554        -3.50925         0.55978
C          12.70017        -4.70430         0.00572
C          10.97212        -5.31955        -0.40456
C           9.10063        -5.07120        -0.44439
S           6.78280        -4.06071        -0.79331
H           1.27270         0.17221        -0.12054
H           3.49058        -0.31819        -0.16085
H           4.98539        -0.47764         0.12170
H           5.32379        -3.03447         1.45906
H           7.46400        -1.45628         0.15788
H           7.14203        -4.45493         1.53180
H           9.33593        -2.76754         0.48133
H          11.18800        -2.62476         1.39081
H          13.58508        -2.72350         0.50012
H          13.96797        -4.97932         0.09840
H          11.73887        -6.26186         0.32808

