%chk=ONdc1ccccc2c1dCSCdCNd2.chk
%NProcShared=20
# opt freq b3lyp/6-31g(2df,p)

Title Card Required 

0  1
O           3.07211        -0.38558        -1.21713
N           4.82645        -0.63290        -2.01571
C           6.17349        -1.02898        -3.32338
C           5.55443        -0.52677        -1.68528
C           5.98879        -0.98200        -3.14079
C           7.42044        -0.63536        -2.00651
C           7.89819        -1.00890        -3.20281
C           9.12661        -0.94759        -3.00133
C           8.35902        -1.32297        -4.33673
C           9.79148        -1.67684        -5.66680
S          12.20589        -1.70540        -5.64091
C          10.72878        -1.68035        -5.20436
C          10.91101        -1.31545        -3.96334
N           9.74049        -1.24893        -3.92384
H           2.19077        -0.09943        -0.27782
H           5.24885        -0.14481        -0.40592
H           4.56902        -1.10802        -3.52614
H           7.32779        -0.31187        -0.96387
H           6.96867        -1.42202        -4.52674
H          11.42760        -1.91693        -6.39348
H          10.41402        -2.23668        -6.82295
H          11.68798        -1.06182        -3.38239

