%chk=S[SH]dCC1dNCdCCdCC2dCCdC2CdCC1.chk
%NProcShared=20
# opt freq b3lyp/6-31g(2df,p)

Title Card Required 

0  1
S           1.38441        -0.06623         0.15344
S           3.50049         0.19686        -0.20701
C           4.53177        -0.85446         0.97441
C           6.26293        -1.33080         1.45050
N           5.80613        -2.19531         2.33059
C           6.85147        -2.73227         2.86574
C           7.12444        -3.63958         3.76578
C           8.53726        -3.76035         3.81606
C           9.32465        -4.45999         4.58911
C          10.84667        -4.48642         4.63397
C          11.33842        -5.40181         5.61210
C          12.79454        -5.58430         5.74273
C          11.83441        -3.67352         3.81302
C          11.32775        -2.66520         2.79470
C          10.11137        -1.82736         1.90410
C           8.22727        -1.12520         1.26821
H           0.75531         0.81285        -0.70350
H           3.50617         1.34985         0.41490
H           3.76068        -1.45043         1.59094
H           7.72079        -2.34146         2.46805
H           6.36493        -4.14674         4.29790
H           9.01400        -3.18396         3.06760
H           8.77326        -5.08409         5.27386
H          10.65058        -6.02111         6.21418
H          13.62613        -6.18394         6.04824
H          10.55030        -2.59836         3.54364
H          10.70888        -1.20072         1.21096
H           8.21277        -1.24938         0.15822
H           8.21836        -0.01823         1.37358

