%chk=SdC1SCdCc2scc1sccc2S.chk
%NProcShared=20
# opt freq b3lyp/6-31g(2df,p)

Title Card Required 

0  1
S           9.46443         0.12616         2.08574
C          11.05215         1.46131         1.72936
S           8.83178         0.56596         1.47704
C           6.62196         1.35269         1.03929
C           7.05802         2.59233         1.06042
C           8.56813         2.41587         0.00210
S           8.87246         2.83381         1.78348
C          10.55856         2.57066         1.61330
C          13.39047         2.12868         1.32748
S          13.37341         0.34861         0.33812
C          11.75640         0.29255         0.01688
C          10.53636        -0.08183        -0.32260
C           9.23653         1.04322        -0.75655
S           7.79296        -0.59507        -0.95469
H           5.89095         0.67276         0.36584
H           6.03342         3.06533         1.72685
H          11.49404         2.96044         1.41841
H          12.00691         1.20961         0.36726
H          10.08121        -1.00287        -0.60468
H           8.06716        -1.91408        -1.29230

