%chk=Sdc1cncc2ncccnc-2c1dS.chk
%NProcShared=20
# opt freq b3lyp/6-31g(2df,p)

Title Card Required 

0  1
S           1.70106        -0.01537        -0.00278
C           3.72600         0.00744         0.07381
C           3.32671         0.41579         1.42070
N           4.50183         0.47803         1.62640
C           5.22053         0.76673         2.57910
C           6.48267         0.78539         2.64103
N           6.94807         1.12506         3.76174
C           8.08556         0.96374         3.22862
C           9.26256         1.35603         4.52404
C          10.22619         1.10166         3.68469
N           9.34731         0.70007         2.36002
C           7.43067         0.49242         1.67501
C           5.81634         0.08086         0.31442
S           4.84385        -0.42377        -1.34983
H           2.51828         0.61473         2.07734
H           4.71225         1.01505         3.39853
H           8.64603         0.42539         1.45036
H           9.05830         1.67150         5.56522
H          11.45012         1.12502         3.76158

