%chk=SdC1NdNNdNSCdCSSCdCS1.chk
%NProcShared=20
# opt freq b3lyp/6-31g(2df,p)

Title Card Required 

0  1
S           4.17912         0.29072         0.22008
C           6.39350         0.82536         0.65799
N           4.50295         1.09781         0.88115
N           5.14569         1.76126         1.42457
N           5.30703         2.60710         2.11737
N           6.51930         2.43136         1.97343
S           7.21734         3.51416         2.86032
C           9.20065         3.28729         2.67450
C           9.65804         4.42667         3.60774
S          10.17004         3.47446         2.82781
S          11.87056         4.73929         3.86381
C          12.86293         3.33968         2.71742
C          11.39959         2.30553         1.87036
S           8.93495         1.56565         1.26435
H          10.09287         2.21171         1.79352
H           9.48320         5.09639         4.15629
H          14.40199         3.74761         3.05154
H          12.41692         3.36956         2.74189

