%chk=SdCC1dCCdCCdCc2cccc1c2.chk
%NProcShared=20
# opt freq b3lyp/6-31g(2df,p)

Title Card Required 

0  1
S           2.71143        -1.45290         0.72123
C           4.50342        -1.87107         1.52723
C           6.18641        -2.83718         2.01555
C           5.81649        -1.81738         1.07347
C           5.81240        -2.83628         0.01110
C           7.11841        -2.65865        -0.20988
C           7.78074        -3.85917         0.06440
C           9.10243        -3.72335         0.25830
C           9.79779        -4.78350         0.91848
C           9.57782        -6.12719         0.45375
C           9.54466        -6.92225         1.47962
C           8.42825        -5.96388         2.41070
C           7.76987        -4.25550         2.47756
C           9.32220        -4.13388         2.18463
H           4.32732        -0.69715         0.60854
H           5.80013        -0.87187         0.17306
H           5.07061        -3.69369         0.36282
H           7.57389        -1.67028         0.20136
H           7.09281        -4.67060         0.55274
H           9.55584        -2.75588         0.55676
H           8.56193        -6.39455         0.05157
H           9.81883        -8.03061         1.13799
H           9.71553        -6.37235         2.93884
H          10.48375        -3.97585         2.58584

