%chk=SdCdC1CdCqSrCdCCdCS1.chk
%NProcShared=20
# opt freq b3lyp/6-31g(2df,p)

Title Card Required 

0  1
S           1.30076        -0.06841         0.04950
C           2.98727        -0.11167         0.11284
C           4.31779        -0.29480         0.38101
C           4.86994        -1.00485         1.42073
C           6.25385        -1.14075         1.61973
S           8.01870        -0.05077         0.02368
C           6.60196        -1.87968         2.70174
C           7.82240        -1.46978         2.10153
C           8.63834        -2.04027         2.93690
C           7.95500        -1.13808         1.61582
S           5.99177        -0.12693         0.13519
H           4.08094        -1.39757         1.99579
H           6.90038         0.53367        -0.83212
H           6.01224        -2.36571         3.41345
H           9.21311        -0.85521         1.20161
H           8.32213        -2.66588         3.85298
H           9.45378        -1.51207         2.16345

