%chk=SdCqCSrCC1dC2CdCCdS1CdC2.chk
%NProcShared=20
# opt freq b3lyp/6-31g(2df,p)

Title Card Required 

0  1
S           1.08465         0.26586        -0.08580
C           2.79315         0.10911         0.04351
C           3.45346        -1.26445         0.04237
S           2.37365        -2.76076         0.08687
C           3.58496         1.48200         0.07495
C           5.23682         1.76893         0.33488
C           5.87483         1.89848        -0.87265
C           7.27163         1.41758        -0.65504
C           8.30478         2.26661        -0.34021
C           7.84183         3.49702        -0.01832
S           6.14046         3.57462         0.96992
C           5.61494         4.37730        -0.47284
C           5.23420         3.30887        -1.23588
H           4.07518        -1.31375         0.93238
H           4.06598        -1.38656        -0.85390
H           1.56719        -2.42129         1.10978
H           3.06343         2.10887         0.78653
H           3.31233         1.82137        -0.96022
H           7.46484         0.39484        -0.27208
H           9.36890         1.99989        -0.27953
H           8.47679         4.37807        -0.21866
H           5.09055         5.33827        -0.42238
H           4.13029         3.44825        -0.99874

