%chk=Sn1sccccc2cnccccc-2s1.chk
%NProcShared=20
# opt freq b3lyp/6-31g(2df,p)

Title Card Required 

0  1
S           3.34328        -0.35863        -0.04211
N           4.90753         0.89192        -0.10947
S           3.89717         1.91957         0.81593
C           5.03246         1.86625         2.06806
C           5.72258         3.02237         1.87664
C           6.76615         3.38159         0.91037
C           7.85111         4.01484         1.37382
C           8.89809         3.02898         1.08340
C          10.05871         3.34745         0.39591
N          11.41749         3.25138         0.60835
C          12.04724         2.32592         1.28218
C          11.49307         1.20084         2.08331
C          10.52719         1.22382         2.97402
C           9.08655         1.65428         2.74159
C           8.49996         1.61352         1.49128
S           6.80462         0.39929         0.53292
H           2.02230         0.18825         0.60294
H           5.29706         0.79825         2.15455
H           5.04173         3.85006         1.76946
H           7.06213         2.76448         0.04125
H           7.72943         4.56176         2.31437
H           9.90701         2.90083        -0.58121
H          13.17446         2.35984         1.26719
H          11.98138         0.24044         1.90522
H          10.47947         0.54621         3.82074
H           9.54571         2.69339         3.19840

