%chk=SSC1dCNdCCdNCdCCdNSCCdCCO1.chk
%NProcShared=20
# opt freq b3lyp/6-31g(2df,p)

Title Card Required 

0  1
S           2.90978         1.08070         0.56651
S           5.33661         3.18052         1.41595
C           7.50415         5.01697         2.09807
C           6.57500         3.32459         1.55462
N           6.07435         3.92187         2.73576
C           7.28222         3.13374         2.27465
C           8.25771         4.24530         3.47189
N           9.24184         4.19046         2.48180
C           9.51172         5.09496         3.32423
C          10.76683         5.59023         3.49605
C          10.94762         6.73228         4.09494
N          12.33327         6.72451         4.07116
S          11.79061         7.06619         5.62920
C          13.95888         8.03191         5.00424
C          14.68225         9.04303         6.00116
C          13.68845         9.13346         4.78028
C          11.41434         8.21350         3.95040
O           9.44309         6.75835         3.08983
H           1.32484        -0.36480        -0.15681
H           6.03742         1.63356         0.98658
H           7.69615         2.20828         1.40147
H           6.93185         5.32326         3.51088
H           8.31790         6.10447         3.79310
H          11.30839         5.03311         2.96708
H           9.96033         7.83726         4.54893
H          14.95335         8.60904         3.98466
H          14.89670         7.75576         5.64970
H          14.38519        10.45317         6.24170
H          15.51006         9.49002         5.24941
H          12.75215         9.38836         4.70399
H          12.57961         9.03171         5.27800

