%chk=C1dCCdCqC2CCCC2rCCCCdC1.chk
%NProcShared=20
# opt freq b3lyp/6-31g(2df,p)

Title Card Required 

0  1
C           1.95387         0.26781        -0.05899
C           3.10059         0.57834        -0.52681
C           2.90959         1.54393        -1.46674
C           4.19121         1.09812        -1.66832
C           5.34634        -0.23323        -0.27893
C           5.02959        -1.56968        -0.49749
C           6.11495        -2.27326         0.22961
C           7.36401        -1.44210         0.38635
C           6.92748        -0.14388         0.05874
C           4.69098         2.49401        -2.18127
C           5.79957         2.01537        -1.52634
C           6.94960         2.36930        -1.96483
C           5.60914         1.49492        -0.57023
C           3.84579         0.67709         0.16151
H           0.89511         0.69665        -0.53183
H           3.42862        -0.62063         0.62021
H           2.13825         2.17746        -1.82156
H           5.15735         0.23466         1.13304
H           5.03959        -1.50686        -1.56735
H           4.03083        -1.87681        -0.20897
H           6.30939        -3.13239        -0.37978
H           5.75992        -2.55690         1.21512
H           8.12603        -1.63432        -0.36835
H           7.76161        -1.27115         1.36367
H           7.25514        -0.18060        -0.98293
H           7.31124         0.79099         0.60950
H           4.83152         3.40933        -1.56227
H           4.91154         2.04934        -3.11527
H           6.46158         0.97746        -2.29334
H           6.63930         2.57555        -0.37145
H           7.08625         3.54961        -1.96094
H           7.02683         2.42504        -3.23454
H           7.12027         1.26566        -0.88073
H           2.37771        -0.04840         0.53517

