%chk=CC1COCC1CCCC1CCCC1.chk
%NProcShared=20
# opt freq b3lyp/6-31g(2df,p)

Title Card Required 

0  1
C           1.07931         0.06008         0.09831
C           2.60621         0.00300         0.10353
C           3.19861         1.10093         0.96501
O           4.50165         0.63912         1.32160
C           4.42217        -0.77925         1.49406
C           3.20452        -1.27078         0.71744
C           3.61663        -2.33237        -0.32170
C           2.39925        -2.76601        -1.10983
C           2.63891        -3.78665        -2.20596
C           1.32739        -4.17299        -2.92258
C           0.80182        -5.52851        -2.45473
C          -0.65193        -5.52909        -2.89622
C          -1.12556        -4.10331        -2.68133
C           0.11818        -3.22726        -2.75383
H           0.73220         0.98731        -0.37118
H           0.67297         0.02014         1.11282
H           0.63205        -0.76692        -0.45734
H           2.97568         0.12699        -0.92119
H           2.62565         1.26373         1.88342
H           3.27967         2.04939         0.42637
H           4.29649        -0.98674         2.56377
H           5.36162        -1.23113         1.16976
H           2.49604        -1.72803         1.41745
H           4.05894        -3.19865         0.18633
H           4.37410        -1.92954        -1.00118
H           2.01324        -1.87500        -1.61275
H           1.64816        -3.14492        -0.40824
H           3.13508        -4.67530        -1.79628
H           3.33426        -3.35723        -2.93708
H           1.54599        -4.25277        -3.99702
H           0.87366        -5.62340        -1.36518
H           1.35963        -6.35535        -2.90685
H          -1.24908        -6.24585        -2.32519
H          -0.72798        -5.78718        -3.95753
H          -1.57816        -4.00608        -1.68614
H          -1.87902        -3.79784        -3.41258
H           0.11932        -2.64283        -1.83193
H           0.07289        -2.50212        -3.57266

