%chk=CC1CCCC1CCCCC1CCCC1.chk
%NProcShared=20
# opt freq b3lyp/6-31g(2df,p)

Title Card Required 

0  1
C           1.73104         0.03937        -0.83943
C           0.88164         0.01658         0.43298
C          -0.07102         1.20783         0.50175
C          -1.24169         0.80803        -0.38880
C          -1.26695        -0.72281        -0.40485
C          -0.08005        -1.18860         0.45256
C          -0.56404        -1.55638         1.86656
C           0.57493        -2.07314         2.73784
C           0.08182        -2.40026         4.14090
C           1.25858        -2.83637         5.01477
C           1.16353        -2.25008         6.43011
C           2.29051        -2.77219         7.31927
C           3.50151        -1.92554         6.94060
C           2.94312        -0.59871         6.42563
C           1.42361        -0.73930         6.45257
H           2.41855         0.89173        -0.81927
H           1.12443         0.12062        -1.74542
H           2.33010        -0.87412        -0.91611
H           1.56798         0.03394         1.28173
H           0.39121         2.14749         0.18797
H          -0.42318         1.34728         1.53224
H          -1.08566         1.18403        -1.40634
H          -2.18420         1.22757        -0.02508
H          -1.14289        -1.07995        -1.43461
H          -2.22528        -1.11222        -0.04670
H           0.38244        -2.07764         0.01016
H          -1.33249        -2.33752         1.79434
H          -1.04119        -0.69822         2.35149
H           1.35890        -1.31329         2.82426
H           1.02996        -2.95785         2.28107
H          -0.66693        -3.19988         4.10480
H          -0.42407        -1.52263         4.55559
H           2.20853        -2.54448         4.55223
H           1.27334        -3.93208         5.06190
H           0.18498        -2.49112         6.85692
H           2.47744        -3.84218         7.19304
H           2.03633        -2.59871         8.37286
H           4.07431        -2.41873         6.14550
H           4.17608        -1.78473         7.78933
H           3.29221        -0.41847         5.40157
H           3.27177         0.24774         7.03569
H           0.95880        -0.19056         5.62912
H           1.03264        -0.31499         7.38615

