%chk=Cc1ctcqOCqCrqCrOrccc1.chk
%NProcShared=20
# opt freq b3lyp/6-31g(2df,p)

Title Card Required 

0  1
C           0.94804        -0.01137        -0.08468
C           2.46804        -0.01137        -0.08468
C           3.22804         0.32426        -1.35753
C           3.87997         0.61216        -2.44939
O              -nan            -nan            -nan
C              -nan            -nan            -nan
C              -nan            -nan            -nan
C              -nan            -nan            -nan
O              -nan            -nan            -nan
C           4.63997         0.94779        -3.72224
C           4.97612         2.23776        -3.99366
C           3.14824        -0.31176         1.05452
H           0.59138         0.24584        -1.06015
H           0.59137         0.70480         0.62580
H           0.59137        -0.98475         0.18030
H           4.90096         0.19709        -4.38054
H           5.29100         3.01961        -4.58912
H           3.25750        -0.68064         2.01213

