%chk=CC1CCCCCqCCCCCCOrC1.chk
%NProcShared=20
# opt freq b3lyp/6-31g(2df,p)

Title Card Required 

0  1
C           0.86207        -0.14768        -0.12782
C           2.39069        -0.19430        -0.12435
C           2.93456        -1.53020        -0.63938
C           4.46327        -1.66238        -0.69351
C           5.09551        -0.78371        -1.76808
C           5.42787         0.65480        -1.36133
C           4.40886         1.39013        -0.47500
C           4.72082         1.19096         1.01988
C           3.73125         1.88448         1.95148
C           3.86914         1.29481         3.34805
C           2.82846         1.91077         4.26251
C           3.02269         1.43292         5.68984
C           2.01416         2.10505         6.60315
O           2.22062         1.67366         7.94017
C           2.95642         1.04235        -0.85441
H           0.45569        -0.96276         0.47961
H           0.45347        -0.21881        -1.13836
H           0.51057         0.79033         0.32124
H           2.64232        -0.17454         0.93648
H           2.52409        -1.73258        -1.63452
H           2.55645        -2.32183         0.02023
H           4.69002        -2.70826        -0.93186
H           4.93286        -1.50655         0.28036
H           4.43950        -0.76661        -2.64713
H           6.02622        -1.25489        -2.10729
H           5.54582         1.22950        -2.29125
H           6.41576         0.67926        -0.88396
H           4.55068         2.46310        -0.67172
H           5.73636         1.53385         1.24748
H           4.72859         0.13067         1.27163
H           2.69080         1.75474         1.63735
H           3.90698         2.96390         1.95026
H           4.88183         1.47534         3.72441
H           3.72302         0.20556         3.32094
H           1.82348         1.64074         3.91254
H           2.90527         3.00297         4.21696
H           4.04091         1.65680         6.03112
H           2.91797         0.34220         5.74719
H           0.98944         1.85736         6.30752
H           2.12860         3.19205         6.56761
H           2.12287         0.71209         7.95121
H           2.86252         0.92161        -1.94183
H           2.33945         1.92101        -0.61969

