%chk=CC1CCqCCOrCCCCCC1N.chk
%NProcShared=20
# opt freq b3lyp/6-31g(2df,p)

Title Card Required 

0  1
C           1.10326         0.00747        -0.48750
C           2.57766         0.00652        -0.10993
C           3.10295         1.45659         0.29258
C           2.75988         2.19748         1.67533
C           3.66656         1.94276         2.95426
C           3.32172         2.55734         4.30929
O           3.93680         1.76707         5.34386
C           1.23207         2.31317         1.85126
C           0.51990         1.55002         2.96974
C           0.96518         0.12721         3.35887
C           0.60973        -0.99834         2.38153
C           1.74462        -1.80983         1.68023
C           2.90313        -1.18117         0.83551
N           3.88034        -0.76666         1.79737
H           0.86349         0.67738        -1.31241
H           0.53112         0.37115         0.34694
H           0.72613        -0.99552        -0.71078
H           3.10579        -0.22728        -1.05315
H           2.72148         2.11806        -0.50724
H           4.19201         1.49209         0.13912
H           3.06111         3.23059         1.43013
H           4.70818         2.16565         2.69153
H           3.76616         0.92349         3.27557
H           2.26931         2.54213         4.55457
H           3.68911         3.57639         4.39000
H           3.52486         0.88090         5.33159
H           0.72168         2.13592         0.90112
H           0.99920         3.38042         1.98347
H          -0.55674         1.54426         2.75805
H           0.56970         2.18582         3.85864
H           0.43756        -0.08741         4.30021
H           2.00203         0.06795         3.66457
H          -0.16555        -0.66842         1.68899
H           0.05576        -1.74516         2.96863
H           1.25683        -2.54875         1.03253
H           2.21277        -2.41055         2.47543
H           3.40563        -1.97709         0.27267
H           3.29331        -0.12122         2.26197
H           4.62429        -0.18539         1.37456

