%chk=CC1CdCNdCCqdOrCdCCdCNO1.chk
%NProcShared=20
# opt freq b3lyp/6-31g(2df,p)

Title Card Required 

0  1
C           2.67063        -0.83734        -0.07579
C           4.57037        -1.90116        -0.28560
C           3.41037        -1.45039        -1.31019
C           4.63389        -1.19975        -1.70269
N           4.80317        -2.27770        -2.45096
C           6.03274        -2.22746        -2.74842
C           6.46004        -3.53167        -3.34298
O           5.75753        -4.51235        -3.54291
C           7.85694        -3.32799        -3.75547
C           8.33812        -4.42364        -4.38912
C           9.75361        -4.47309        -4.18501
C           9.10269        -5.21435        -3.16758
N           7.86912        -4.30451        -1.83077
O           6.43373        -2.98341        -1.01657
H           1.59131        -0.16874        -0.89847
H           1.83646         0.27441         0.46949
H           1.36833        -1.15124         0.34027
H           4.27625        -0.38372        -0.19758
H           2.41043        -1.93258        -1.52131
H           5.51064        -0.42770        -0.84191
H           6.86762        -1.50711        -2.08067
H           8.62135        -2.79865        -2.90481
H           7.78032        -5.49408        -4.52277
H          10.72242        -4.10622        -3.71250
H           9.52927        -6.12320        -4.37163
H           9.28756        -4.46895        -2.11656

