%chk=CC1CCC2dCC23CdCC3C2CdC2CCCC1dO.chk
%NProcShared=20
# opt freq b3lyp/6-31g(2df,p)

Title Card Required 

0  1
C           0.99263         0.03863         0.28788
C           2.51645         0.02057         0.12542
C           3.02433        -1.22526        -0.63707
C           1.98351        -2.33570        -0.67815
C           1.97984        -2.97988        -2.00579
C           1.21770        -4.02301        -2.27130
C           0.88126        -2.71495        -2.93146
C           0.77722        -3.55622        -4.26254
C          -0.33516        -2.74699        -4.41457
C           0.75848        -1.65677        -4.33988
C           0.02391        -0.30004        -4.71641
C           0.73499         0.80466        -5.65267
C           0.43336         0.96370        -4.35793
C           0.48217         1.54260        -3.08428
C           1.91983         1.78912        -2.70308
C           1.98112         2.19226        -1.25077
C           2.99708         1.31076        -0.55114
O           4.19769         1.58109        -0.62886
H           0.61513        -0.81798         0.85123
H           0.52144         0.01024        -0.70021
H           0.63467         0.92706         0.80375
H           2.95142         0.01748         1.13021
H           3.94532        -1.60558        -0.17077
H           3.32174        -0.96483        -1.66282
H           0.98705        -1.90731        -0.72117
H           1.94564        -2.93383         0.24518
H           0.64333        -4.70044        -1.63062
H           1.77666        -3.63465        -4.76771
H          -1.18380        -2.61275        -3.68045
H           1.25861        -1.76536        -5.33194
H          -1.03630        -0.38249        -4.90348
H           1.47278         1.60449        -5.80655
H           0.04518         0.76636        -2.44842
H          -0.16124         2.42227        -2.99637
H           2.34911         2.57557        -3.33096
H           2.50415         0.87638        -2.89492
H           0.99550         2.11813        -0.78847
H           2.23944         3.24523        -1.13313

