%chk=CC1dCCCCCCdCqSCNqNrOOrS1.chk
%NProcShared=20
# opt freq b3lyp/6-31g(2df,p)

Title Card Required 

0  1
C           2.31586         0.14031        -0.05248
C           4.28072        -0.15538        -0.00876
C           3.49945        -0.86117         0.92090
C           4.57192        -1.30544         1.51804
C           4.71330        -2.21102         2.56607
C           6.12456        -2.09278         2.42613
C           6.90666        -2.89667         3.26832
C           8.01775        -2.54919         2.45484
C           8.31224        -1.68398         1.50140
S          10.18867        -2.15625         2.92811
C          11.06307        -3.83948         4.45860
N          12.86857        -4.16491         4.77156
N          13.51388        -3.00830         5.32339
O          13.30774        -5.28924         5.82160
O          14.88438        -5.30638         6.01664
S           6.58626        -0.27071         0.59309
H           1.47780        -0.49367         0.60354
H           1.74302        -0.25862        -0.97273
H           1.74161         1.08032         0.17030
H           2.60113        -1.25808         1.43458
H           4.78618        -0.26272         1.94158
H           4.85553        -1.87250         0.55049
H           4.40933        -3.15112         2.14897
H           4.40888        -1.67356         3.43770
H           6.44903        -1.03041         2.70011
H           6.34377        -2.48114         1.35962
H           6.68016        -3.92993         3.09060
H           6.80526        -2.48867         4.27158
H           8.68029        -1.70998         2.20468
H          10.84262        -4.95576         4.36324
H          10.86997        -3.68261         5.56918
H          13.46035        -2.29712         4.61770
H          14.52859        -3.22551         5.42904
H          14.99299        -5.92477         6.77908

