%chk=CC1OCqCCCCCCNOrONCC1Cl.chk
%NProcShared=20
# opt freq b3lyp/6-31g(2df,p)

Title Card Required 

0  1
C           0.94295        -0.15084        -0.08594
C           2.46195         0.03378        -0.08886
O           3.00215        -1.23622        -0.48757
C           4.43176        -1.31154        -0.55371
C           5.08994        -1.06291         0.80865
C           6.60875        -1.09899         0.78091
C           7.14153        -0.40290         2.02576
C           8.65551        -0.46218         2.04345
C           9.19350         0.18059         3.31263
C          10.70854         0.07095         3.33058
N          11.23403         0.72138         4.52677
O          12.65807         0.42466         4.49583
O           4.90433        -0.55869        -1.68167
N           5.40839         0.77929        -1.38121
C           4.38089         1.60679        -0.73870
C           2.91553         1.21946        -0.98532
Cl          1.92775         2.69768        -0.69209
H           0.66090        -1.05074         0.47129
H           0.55908        -0.26672        -1.10450
H           0.43984         0.69628         0.38902
H           2.74344         0.20996         0.95481
H           4.65082        -2.35537        -0.81138
H           4.70509        -1.78580         1.53905
H           4.78187        -0.10346         1.22307
H           7.01973        -0.59050        -0.09612
H           6.95432        -2.13650         0.72983
H           6.72782        -0.87475         2.92456
H           6.81849         0.64745         2.03474
H           9.05694         0.05534         1.16281
H           8.98201        -1.50697         1.98338
H           8.76643        -0.32076         4.19014
H           8.88360         1.23251         3.35566
H          11.12113         0.56219         2.44182
H          11.00597        -0.98414         3.30308
H          10.91888         0.21708         5.35804
H          12.99970         1.15172         3.94821
H           5.53796         1.12473        -2.33621
H           4.57372         2.63400        -1.06904
H           4.58059         1.65302         0.33808
H           2.78120         0.96394        -2.04226

