%chk=CC1OC1NqCqCrCrCqCrC.chk
%NProcShared=20
# opt freq b3lyp/6-31g(2df,p)

Title Card Required 

0  1
C           1.04753        -0.05385        -0.05506
C           2.52957         0.05932         0.01911
O           3.24219        -0.70075        -0.93872
C           3.31465         0.72201        -1.10202
N           4.60418         1.43906        -0.77578
C           5.69632         1.01831        -1.71703
C           7.08768         1.62402        -1.45296
C           5.96098        -0.50190        -1.67442
C           4.32059         2.91788        -0.77743
C           3.15673         3.26409         0.17934
C           5.45349         3.86161        -0.34341
H           0.67052        -0.68794         0.75251
H           0.71091        -0.48098        -1.00639
H           0.59286         0.93516         0.05223
H           2.91421         0.05540         1.03107
H           2.75838         1.13059        -1.94481
H           5.39694         1.28240        -2.73964
H           7.34908         1.58080        -0.39005
H           7.18285         2.64063        -1.82289
H           7.86840         1.08607        -2.00368
H           6.20859        -0.82667        -0.65700
H           6.80406        -0.76659        -2.32329
H           5.12899        -1.09545        -2.05145
H           4.01514         3.20830        -1.79213
H           3.40568         2.99307         1.21165
H           2.21940         2.77721        -0.09602
H           2.94780         4.34028         0.15579
H           5.94456         3.50917         0.56896
H           5.07183         4.87057        -0.14620
H           6.18947         4.02627        -1.12559

