%chk=CCC1qCrCCOCCNqCrCC1CO.chk
%NProcShared=20
# opt freq b3lyp/6-31g(2df,p)

Title Card Required 

0  1
C           1.19309        -0.34140        -0.89918
C           2.57981        -0.12973        -0.30260
C           3.04820        -0.88901         1.00750
C           3.20506        -2.37380         0.53797
C           4.50275        -0.38128         1.36086
C           4.68552         1.03771         1.95276
O           3.88553         1.98005         1.26553
C           2.94794         2.78728         1.97555
C           1.61515         2.19879         2.53522
N           0.88668         1.27484         1.66221
C          -0.35701         1.87904         1.18008
C           0.74370        -0.10845         2.15114
C           2.07867        -0.90209         2.28907
C           2.68482        -0.53250         3.66237
O           3.83622        -1.25907         4.06085
H           1.05024         0.35253        -1.73504
H           0.37773        -0.09850        -0.24439
H           1.00876        -1.36373        -1.21802
H           2.70203         0.94454        -0.19225
H           3.28111        -0.38590        -1.10915
H           3.89710        -2.45627        -0.31052
H           2.24392        -2.78797         0.21100
H           3.59170        -3.01762         1.33462
H           5.09120        -0.40917         0.43192
H           5.01251        -1.10674         2.00850
H           5.73817         1.31072         1.79615
H           4.58964         1.11181         3.03582
H           2.64682         3.53933         1.23653
H           3.46582         3.32785         2.77371
H           0.97776         3.06748         2.75120
H           1.72843         1.80312         3.54305
H          -0.13993         2.86580         0.75206
H          -1.09991         1.98974         1.97379
H          -0.83073         1.32246         0.36478
H           0.10410        -0.72118         1.50063
H           0.18817        -0.12443         3.09775
H           1.78426        -1.95589         2.42535
H           1.93725        -0.60369         4.45842
H           2.98568         0.49529         3.66959
H           3.62389        -2.18981         4.08007

