%chk=CCC1qCrCCCCCCqNrqCCrO1.chk
%NProcShared=20
# opt freq b3lyp/6-31g(2df,p)

Title Card Required 

0  1
C           1.02616         0.28857        -0.00765
C           2.54740         0.03048         0.13742
C           2.92429        -1.23951         1.03241
C           1.73961        -2.17731         0.73471
C           4.30176        -1.78357         0.54188
C           4.79098        -3.17170         1.01307
C           3.72272        -4.22009         1.31498
C           3.02641        -4.22317         2.71832
C           2.40432        -2.97366         3.42866
C           3.29414        -1.71944         3.49302
N           4.67299        -2.14026         3.58158
C           3.02016        -0.99996         4.85310
C           4.02801         0.09222         5.22479
O           3.02403        -0.80088         2.41638
H           0.80486         1.15399        -0.63329
H           0.56002         0.42337         0.97370
H           0.51738        -0.54465        -0.51523
H           3.01804         0.94302         0.51687
H           2.91398        -0.12873        -0.88674
H           1.67249        -2.38406        -0.33788
H           0.80760        -1.76466         1.12961
H           1.70537        -3.14329         1.19270
H           5.08929        -1.05247         0.78869
H           4.28969        -1.82671        -0.55561
H           5.50292        -3.10521         1.83579
H           5.44328        -3.56229         0.22014
H           4.19253        -5.20586         1.21569
H           3.01774        -4.24076         0.47657
H           3.76313        -4.62870         3.42078
H           2.22806        -4.97702         2.67718
H           2.14643        -3.30896         4.44242
H           1.41418        -2.69557         3.04722
H           4.82368        -2.76481         4.35810
H           5.31648        -1.34884         3.64140
H           3.04666        -1.73864         5.66801
H           2.01640        -0.56069         4.85280
H           5.04879        -0.29908         5.30508
H           3.79242         0.50357         6.21065
H           4.02408         0.89891         4.48902

