%chk=CCCCqCrCCqCrCCqCrCqCrqCCrCCC.chk
%NProcShared=20
# opt freq b3lyp/6-31g(2df,p)

Title Card Required 

0  1
C           0.73878        -0.10697         0.03319
C           2.23871        -0.13392         0.02655
C           2.84651         1.03283         0.80759
C           4.36971         1.01073         0.66807
C           4.71366         1.03755        -0.82536
C           5.00717         2.16459         1.47867
C           6.56042         2.18523         1.39952
C           7.03801         2.42138        -0.00952
C           7.09381         3.30959         2.29406
C           8.63639         3.46912         2.44849
C           9.38713         3.64069         1.10548
C           9.01499         4.65200         3.41993
C           8.52243         5.99358         2.82654
C           8.46546         4.44814         4.87337
C           6.96893         4.55145         5.15352
C          10.58284         4.67467         3.51592
C          11.19251         5.79730         4.33551
C          12.70591         5.74242         4.24838
H           0.37263        -0.92806        -0.58966
H           0.38727         0.83343        -0.40338
H           0.35461        -0.21082         1.04642
H           2.48302        -0.09314        -1.03375
H           2.63841        -1.08186         0.40367
H           2.56197         0.96290         1.86477
H           2.45965         1.98931         0.43385
H           4.74682         0.07455         1.09972
H           4.69030         2.06109        -1.21483
H           4.09895         0.44698        -1.48994
H           5.64926         0.51348        -0.99892
H           4.70022         2.06366         2.53398
H           4.59993         3.13179         1.15588
H           6.92895         1.23465         1.79774
H           6.68071         3.35407        -0.42499
H           6.88060         1.60569        -0.69402
H           8.10564         2.35782        -0.10444
H           6.68890         3.05207         3.26424
H           6.62941         4.25269         1.99289
H           8.99803         2.53206         2.89463
H           8.85568         4.33068         0.44014
H           9.58805         2.67107         0.64873
H          10.40894         3.99430         1.14170
H           7.43711         6.03019         2.70763
H           8.95728         6.17872         1.83777
H           8.78694         6.84019         3.46329
H           8.90496         5.22107         5.50998
H           8.83099         3.48896         5.26315
H           6.49505         5.36018         4.59401
H           6.80690         4.73877         6.21904
H           6.43409         3.61897         4.97314
H          11.03652         4.82834         2.53838
H          10.94033         3.69516         3.86403
H          10.88902         5.72910         5.37942
H          10.86612         6.76208         3.93719
H          13.08206         4.79241         4.63911
H          13.13105         6.56102         4.83197
H          13.04503         5.84582         3.21131

