%chk=CCCCCCqCCqCrOrCqCrO.chk
%NProcShared=20
# opt freq b3lyp/6-31g(2df,p)

Title Card Required 

0  1
C           0.90731        -0.01907         0.05959
C           2.41958         0.04949        -0.00675
C           2.90517        -0.40990        -1.38027
C           4.38835        -0.08787        -1.61507
C           4.96931        -1.07913        -2.62722
C           6.49865        -1.24185        -2.54341
C           6.98030        -2.12545        -1.34171
C           6.53323        -1.71738         0.07107
C           5.09940        -2.10874         0.42814
O           7.33278        -2.41374         1.03439
C           7.03298        -1.85164        -3.87052
C           6.59195        -1.06710        -5.10383
O           8.45843        -1.88241        -3.85750
H           0.55055         0.38474         1.01030
H           0.55984        -1.05466        -0.02591
H           0.46741         0.56137        -0.75570
H           2.81688        -0.58760         0.79261
H           2.76939         1.06601         0.19271
H           2.32541         0.05059        -2.18338
H           2.70357        -1.49024        -1.45663
H           4.94806        -0.09827        -0.68830
H           4.53698         0.95177        -1.91893
H           4.62903        -0.69758        -3.59057
H           4.53261        -2.08528        -2.55111
H           6.95221        -0.24896        -2.42383
H           8.08028        -2.12989        -1.34361
H           6.69294        -3.17101        -1.50511
H           6.73711        -0.64940         0.20872
H           4.96907        -3.17079         0.61744
H           4.38231        -1.95617        -0.35599
H           4.76995        -1.52888         1.29754
H           6.95951        -3.29321         1.11752
H           6.69471        -2.89142        -3.96651
H           6.90917        -0.02190        -5.02023
H           5.51028        -1.09151        -5.25205
H           7.03604        -1.47871        -6.01305
H           8.77747        -0.96448        -3.75754

