%chk=CCCCC1CCCCCCCCCqCrqCrCC1C.chk
%NProcShared=20
# opt freq b3lyp/6-31g(2df,p)

Title Card Required 

0  1
C           0.97712         0.16984         0.16350
C           2.49647         0.21653         0.22461
C           3.01036        -0.94767        -0.59763
C           4.51987        -1.09365        -0.58702
C           5.01863        -2.16715        -1.58295
C           3.91420        -3.14349        -2.11708
C           3.83185        -4.47348        -1.37565
C           3.55741        -5.61195        -2.37070
C           4.67824        -6.65690        -2.34888
C           5.38572        -6.79205        -3.70282
C           6.91281        -6.64945        -3.59199
C           7.48435        -5.64902        -4.60668
C           8.14155        -4.41900        -3.94540
C           7.54946        -2.99931        -4.27742
C           6.35273        -3.06861        -5.24251
C           8.64037        -2.19109        -5.01931
C           7.22230        -2.23807        -2.93606
C           5.80834        -1.59860        -2.81347
C           5.89397        -0.08529        -2.98376
H           0.54416         0.98728         0.74876
H           0.60420        -0.77890         0.55932
H           0.62932         0.25835        -0.87039
H           2.84438         0.13407         1.25685
H           2.86552         1.15660        -0.19153
H           2.66987        -0.79136        -1.62728
H           2.56870        -1.86853        -0.20587
H           4.84592        -1.37434         0.42313
H           4.97968        -0.12189        -0.75621
H           5.72153        -2.77371        -0.99821
H           4.08095        -3.33963        -3.17712
H           2.90691        -2.72132        -2.12792
H           3.01526        -4.43217        -0.64445
H           4.74253        -4.65171        -0.79744
H           3.39990        -5.22702        -3.38583
H           2.60710        -6.09093        -2.11036
H           4.23707        -7.62385        -2.08266
H           5.39844        -6.43817        -1.55507
H           4.97594        -6.08625        -4.43194
H           5.16073        -7.78709        -4.10758
H           7.36017        -7.63026        -3.79409
H           7.21923        -6.39261        -2.57381
H           6.72041        -5.39670        -5.33856
H           8.25260        -6.15756        -5.20156
H           9.20253        -4.43665        -4.23280
H           8.18210        -4.56911        -2.86058
H           6.61928        -3.53778        -6.19375
H           5.98679        -2.07159        -5.51056
H           5.52767        -3.63790        -4.80243
H           8.91370        -2.68106        -5.96071
H           9.55073        -2.09140        -4.41758
H           8.28509        -1.18233        -5.25840
H           7.97563        -1.45250        -2.77315
H           7.39654        -2.90557        -2.08433
H           5.20388        -1.86200        -3.67435
H           6.47302         0.39185        -2.18942
H           4.88834         0.34714        -3.01922
H           6.37675         0.15400        -3.93802

