%chk=CCCCC1CCNCNCCqOCrCC1.chk
%NProcShared=20
# opt freq b3lyp/6-31g(2df,p)

Title Card Required 

0  1
C           0.88395         0.05304        -0.09306
C           2.38623         0.10768        -0.01821
C           2.81090         0.75648         1.29768
C           4.30393         0.92196         1.22911
C           5.01575         1.26661         2.53040
C           5.30145         0.09812         3.51702
C           4.93450        -1.32309         3.07934
N           6.02960        -2.16554         2.57081
C           6.69745        -1.72250         1.35999
N           7.67020        -0.72994         1.72618
C           8.35341        -0.05901         0.61582
C           8.32855         1.50390         0.72419
O           9.14068         1.97641         1.80519
C           9.12017         3.39348         1.97008
C           6.87869         1.98186         0.80996
C           6.30778         2.05183         2.24626
H           0.56754        -0.39063        -1.03899
H           0.47105         1.06340        -0.02038
H           0.49126        -0.54674         0.73244
H           2.78316         0.67509        -0.87128
H           2.80739        -0.90401        -0.09408
H           2.49709         0.15217         2.15243
H           2.35698         1.74822         1.40420
H           4.45051         1.71651         0.48928
H           4.73719         0.02465         0.79908
H           4.36287         1.96191         3.07913
H           4.75258         0.32409         4.44375
H           6.34531         0.09775         3.85738
H           4.08950        -1.34835         2.38901
H           4.55156        -1.82879         3.97686
H           5.62063        -3.07844         2.38309
H           5.98901        -1.38706         0.59814
H           7.20180        -2.58703         0.91416
H           8.35637        -1.16596         2.34837
H           7.88940        -0.33857        -0.34273
H           9.39282        -0.39891         0.56959
H           8.76116         1.89183        -0.20787
H           9.68047         3.63935         2.87463
H           8.11342         3.79253         2.11695
H           9.56751         3.88928         1.10669
H           6.32606         1.34073         0.12144
H           6.79365         2.98465         0.37143
H           6.07426         3.10624         2.44962
H           7.06960         1.80072         2.99137

