%chk=CCCCCC1CC1OCqOrCCCCCOCOC.chk
%NProcShared=20
# opt freq b3lyp/6-31g(2df,p)

Title Card Required 

0  1
C           1.00669         0.03894        -0.05088
C           2.52041         0.06249        -0.04345
C           3.03300         1.44192         0.35995
C           4.54929         1.43618         0.34503
C           5.14550         2.78238         0.73161
C           6.64798         2.75806         0.74237
C           7.47064         1.57179         0.29073
C           7.37785         2.78572        -0.57279
O           8.53810         3.63860        -0.61810
C           8.31816         4.75002        -1.47598
O           7.27094         5.55518        -0.95541
C           9.59352         5.56577        -1.62397
C           9.35019         6.75962        -2.54434
C          10.60748         7.59680        -2.69211
C          10.35127         8.79795        -3.59235
C          11.61753         9.62259        -3.71645
O          11.36630        10.73947        -4.55845
C          12.54445        11.52292        -4.68550
O          12.30159        12.64070        -5.52559
C          13.47615        13.42678        -5.65638
H           0.64425        -0.95074        -0.34095
H           0.61476         0.77350        -0.76111
H           0.61396         0.27507         0.94281
H           2.89686        -0.20119        -1.03958
H           2.89815        -0.69618         0.65297
H           2.66965         1.70254         1.36067
H           2.65811         2.20095        -0.33666
H           4.88603         1.15797        -0.66098
H           4.91491         0.66725         1.03732
H           4.78839         3.06423         1.72924
H           4.79542         3.56409         0.04504
H           7.04631         3.37208         1.54489
H           6.99603         0.67668        -0.09642
H           8.38980         1.36478         0.82369
H           6.78442         2.69180        -1.48140
H           8.01594         4.38193        -2.46373
H           7.59379         5.85522        -0.09041
H          10.39699         4.93214        -2.02046
H           9.93271         5.91716        -0.64137
H           8.54585         7.38788        -2.14309
H           9.02109         6.40624        -3.52954
H          11.41437         6.98293        -3.11016
H          10.93872         7.93998        -1.70428
H           9.54167         9.41916        -3.18889
H          10.01813         8.47370        -4.58610
H          12.41885         9.01063        -4.14722
H          11.93171         9.97290        -2.72600
H          13.33861        10.90673        -5.12358
H          12.84897        11.87555        -3.69290
H          13.25627        14.27613        -6.30679
H          14.28069        12.83683        -6.10690
H          13.79243        13.80410        -4.67869

