%chk=CCCCqCCCrCqCCrCqCrCOC.chk
%NProcShared=20
# opt freq b3lyp/6-31g(2df,p)

Title Card Required 

0  1
C           0.80049        -0.06764         0.13409
C           2.30092        -0.08743        -0.03299
C           3.00264         0.93272         0.84916
C           4.54996         0.97223         0.86037
C           5.04567         1.32683        -0.55954
C           4.74481         0.37949        -1.70933
C           5.39881         0.81029        -3.00086
C           5.11773         1.97990         1.98378
C           4.59596         1.63072         3.44020
C           3.11322         1.75589         3.78580
C           6.72615         2.07867         2.04448
C           7.46073         2.56055         0.77078
C           7.21148         3.04409         3.15256
O           8.64155         3.04660         3.19137
C           9.13189         4.01640         4.09944
H           0.36317        -0.77429        -0.57715
H           0.42310         0.93021        -0.11141
H           0.49950        -0.33348         1.14825
H           2.36805         0.16458        -1.07876
H           2.72033        -1.08348         0.12718
H           2.67879         0.60104         1.82145
H           2.60766         1.93921         0.68292
H           4.92395        -0.02369         1.12562
H           6.11822         1.25660        -0.55085
H           4.77396         2.35672        -0.80489
H           3.70962         0.41649        -2.00953
H           5.00821        -0.64525        -1.43778
H           5.05067         1.81387        -3.26474
H           5.08287         0.12666        -3.79373
H           6.48769         0.80897        -2.92796
H           4.74845         2.98691         1.74426
H           5.04128         2.32962         4.15016
H           4.95383         0.63371         3.72268
H           2.66080         2.62656         3.30320
H           2.98425         1.85881         4.86843
H           2.54291         0.85308         3.56578
H           7.11182         1.07680         2.27728
H           6.93457         3.39852         0.30362
H           7.65006         1.75856         0.05966
H           8.48566         2.89161         0.96218
H           6.88677         2.74071         4.14624
H           6.84205         4.05508         2.93696
H          10.22311         3.99667         4.06199
H           8.80290         3.77244         5.11250
H           8.78602         5.01479         3.81529

