%chk=CCCCOC1CCCCCCqCrCC1.chk
%NProcShared=20
# opt freq b3lyp/6-31g(2df,p)

Title Card Required 

0  1
C           0.93543        -0.02154        -0.11822
C           2.45095        -0.03794        -0.16998
C           3.05926         1.03282         0.72181
C           4.58003         1.01605         0.57988
O           5.09805         2.07254         1.36902
C           6.48494         2.00577         1.66340
C           6.95959         3.45979         1.87826
C           6.54970         4.16150         3.18592
C           5.04781         4.21790         3.48398
C           4.64969         3.64154         4.85274
C           5.07257         2.19346         5.15352
C           4.56930         1.17962         4.11421
C           3.44756         0.29322         4.66196
C           5.71240         0.31090         3.55399
C           6.84534         1.07402         2.84528
H           0.53593        -0.78020        -0.79888
H           0.54339         0.95259        -0.42258
H           0.57336        -0.24183         0.89077
H           2.77960         0.12466        -1.20204
H           2.81516        -1.02221         0.14074
H           2.76647         0.85323         1.76357
H           2.66970         2.02688         0.47853
H           4.86811         1.19256        -0.46006
H           4.97663         0.04933         0.88740
H           7.00364         1.64032         0.76694
H           6.58839         4.06915         1.04310
H           8.05525         3.48154         1.81734
H           6.91303         5.19635         3.11862
H           7.10555         3.73346         4.02522
H           4.44529         3.76515         2.69542
H           4.73613         5.27054         3.46749
H           3.56021         3.71463         4.95008
H           5.07561         4.28560         5.63217
H           4.69512         1.92515         6.14722
H           6.16072         2.15433         5.24998
H           4.09068         1.72526         3.30946
H           3.79405        -0.35022         5.47350
H           3.04611        -0.34804         3.86731
H           2.61940         0.90990         5.02832
H           5.30509        -0.44324         2.87230
H           6.15562        -0.26840         4.37449
H           7.55833         0.32748         2.46734
H           7.44091         1.61272         3.58978

