%chk=CCCCCC1CCCC1qCCrCC.chk
%NProcShared=20
# opt freq b3lyp/6-31g(2df,p)

Title Card Required 

0  1
C           0.77826        -0.09607        -0.05537
C           2.27303         0.09515        -0.07211
C           2.61587         1.59045        -0.26097
C           4.10503         1.69278        -0.07181
C           4.89686         2.94957        -0.37101
C           6.45096         2.74260        -0.35189
C           7.13966         3.59937         0.72462
C           8.55460         3.05333         0.84112
C           8.54706         1.63650         0.27978
C           7.09778         1.31078        -0.20190
C           6.50966         0.34334         0.88156
C           6.24242         0.96121         2.25923
C           7.21737         0.58258        -1.59330
C           5.94421         0.27937        -2.37806
H           0.52561        -1.15103         0.08200
H           0.35081         0.25036        -0.99964
H           0.34140         0.47800         0.76491
H           2.71880        -0.50851        -0.87299
H           2.70027        -0.28821         0.86768
H           2.10382         2.19797         0.48284
H           2.32298         1.91814        -1.26529
H           4.49550         0.91299        -0.68126
H           4.24194         1.43233         0.97746
H           4.60844         3.74194         0.32468
H           4.61597         3.30970        -1.37086
H           6.81470         3.15767        -1.30602
H           6.63756         3.54566         1.69253
H           7.15225         4.66135         0.45700
H           8.89503         3.06289         1.88300
H           9.25434         3.67089         0.26857
H           8.88849         0.93173         1.04912
H           9.28225         1.55607        -0.52883
H           7.19924        -0.49766         1.02797
H           5.60882        -0.16316         0.52812
H           7.17233         1.20580         2.77533
H           5.66812         0.26820         2.88009
H           5.65114         1.87780         2.22224
H           7.74992        -0.36622        -1.45307
H           7.84792         1.18930        -2.25733
H           5.32189        -0.45593        -1.85830
H           6.17648        -0.15798        -3.35363
H           5.36771         1.18816        -2.58014

