%chk=CCCCCCCqCCqCrNrCqCrCC.chk
%NProcShared=20
# opt freq b3lyp/6-31g(2df,p)

Title Card Required 

0  1
C           0.95000        -0.00069        -0.11712
C           2.46479         0.01442        -0.15182
C           3.00710         1.14916         0.70209
C           4.52270         1.23461         0.55769
C           5.08357         2.52867         1.15900
C           6.52933         2.29409         1.59894
C           7.03433         3.26755         2.68509
C           6.50031         2.92180         4.12688
C           4.97854         2.81571         4.31808
C           4.37110         1.49542         3.85291
N           4.58584         2.85217         5.72876
C           8.60450         3.29601         2.68005
C           9.16169         3.55094         1.26608
C           9.15170         4.36991         3.64641
C          10.67087         4.39597         3.70073
H           0.56737        -0.78332        -0.77674
H           0.54922         0.96123        -0.45229
H           0.58270        -0.19060         0.89664
H           2.80808         0.14142        -1.18363
H           2.85295        -0.94671         0.20821
H           2.71872         0.95585         1.74246
H           2.55355         2.10522         0.42270
H           4.82909         1.18354        -0.48974
H           4.95244         0.34004         1.03427
H           4.46586         2.88362         1.97565
H           5.00337         3.36330         0.45663
H           7.08352         2.35965         0.66347
H           6.71608         1.27439         1.96364
H           6.68436         4.27579         2.42469
H           6.83479         3.71852         4.80252
H           6.97509         1.99675         4.48094
H           4.51964         3.70116         3.84750
H           4.59967         0.65712         4.51333
H           4.76748         1.12499         2.92680
H           3.28820         1.60666         3.74192
H           4.87635         1.95248         6.14782
H           3.57168         2.81962         5.75930
H           8.96738         2.31370         3.01552
H           8.79024         4.50549         0.87908
H           8.90418         2.76282         0.55765
H          10.25208         3.56066         1.24265
H           8.80643         4.18858         4.66849
H           8.77373         5.35673         3.35206
H          11.05439         3.41918         4.01191
H          11.01096         5.14977         4.41458
H          11.11041         4.65155         2.73429

