%chk=CCCCCCCNCqCrCCCqCrCC.chk
%NProcShared=20
# opt freq b3lyp/6-31g(2df,p)

Title Card Required 

0  1
C           0.89044         0.02866        -0.09065
C           2.40688         0.02430        -0.08505
C           2.93945        -0.88317         1.01531
C           4.46127        -0.87804         1.01660
C           4.98803        -1.77644         2.11981
C           6.51171        -1.76767         2.13430
C           6.98069        -2.69590         3.23959
N           8.43643        -2.77751         3.25343
C           8.90665        -3.68963         4.30878
C           8.40941        -5.12135         4.08658
C          10.44014        -3.63218         4.30954
C          11.04909        -4.49292         5.42000
C          12.58286        -4.45536         5.43991
C          13.09700        -3.03107         5.65574
C          13.08783        -5.41844         6.53110
C          14.60382        -5.51410         6.57310
H           0.51758         0.68330        -0.88294
H           0.49985         0.38875         0.86645
H           0.49997        -0.97921        -0.26370
H           2.77600         1.04559         0.06466
H           2.77668        -0.31612        -1.05926
H           2.57231        -1.90649         0.86720
H           2.56789        -0.54586         1.99095
H           4.83296         0.14247         1.16519
H           4.83735        -1.22619         0.04709
H           4.62311        -2.80081         1.96854
H           4.60655        -1.44234         3.09280
H           6.88697        -0.75068         2.29418
H           6.89294        -2.11363         1.16501
H           6.54096        -3.67383         3.03734
H           6.61026        -2.34336         4.20929
H           8.82347        -1.85003         3.40239
H           8.54967        -3.32435         5.28038
H           8.75599        -5.50915         3.12254
H           7.31923        -5.19175         4.11663
H           8.75315        -5.79474         4.87419
H          10.73932        -2.58686         4.44580
H          10.83709        -3.95367         3.33770
H          10.75092        -5.53764         5.28357
H          10.64812        -4.17204         6.38988
H          12.94555        -4.81501         4.46783
H          12.74105        -2.63144         6.61088
H          12.76947        -2.35822         4.85908
H          14.18809        -2.99017         5.64528
H          12.68249        -6.42291         6.35017
H          12.71418        -5.10326         7.51326
H          14.99562        -5.84187         5.60525
H          14.91902        -6.23099         7.33585
H          15.05921        -4.55254         6.82377

