%chk=CCCCCCCCCCqCCrCCCCO.chk
%NProcShared=20
# opt freq b3lyp/6-31g(2df,p)

Title Card Required 

0  1
C           0.95032         0.06215         0.03368
C           2.46635         0.06662         0.03330
C           2.98752         1.49357         0.06112
C           4.50619         1.51301         0.06649
C           4.97843         2.95413         0.11244
C           6.48529         3.01690         0.15751
C           6.92797         4.47384         0.25813
C           8.43505         4.48008         0.25014
C           9.06598         5.85235         0.17153
C          10.60739         5.78043         0.09288
C          11.15389         5.06288        -1.17478
C          10.91302         3.56585        -1.32201
C          11.14098         7.23436         0.16008
C          12.66569         7.30369         0.19430
C          13.17720         8.73419         0.22993
C          14.69941         8.73781         0.21216
O          15.18045        10.06929         0.23659
H           0.57529        -0.96403         0.01412
H           0.56148         0.59015        -0.84302
H           0.56194         0.55585         0.93042
H           2.83795        -0.44843        -0.85992
H           2.83757        -0.48242         0.90635
H           2.61260         2.01125         0.95306
H           2.61695         2.04650        -0.81116
H           4.89714         1.01486        -0.82952
H           4.88922         0.96497         0.93614
H           4.56923         3.45606         0.99645
H           4.61669         3.49478        -0.77075
H           6.89900         2.55073        -0.74847
H           6.87273         2.44372         1.00954
H           6.53235         4.95097         1.15915
H           6.55483         5.02693        -0.61309
H           8.66328         3.94758        -0.65780
H           8.84272         3.90783         1.09145
H           8.76410         6.42783         1.05679
H           8.67736         6.39021        -0.70190
H          10.97307         5.24821         0.98203
H          12.24280         5.14346        -1.18027
H          10.79464         5.58290        -2.07002
H          11.03411         3.04512        -0.36731
H          11.61989         3.14263        -2.04062
H           9.94110         3.33406        -1.75737
H          10.74609         7.72855         1.05828
H          10.76462         7.80305        -0.70011
H          13.09057         6.84054        -0.69975
H          13.03762         6.74501         1.06140
H          12.80751         9.25994         1.11738
H          12.79942         9.29094        -0.63730
H          15.08597         8.24131        -0.68501
H          15.09720         8.21145         1.08706
H          14.82609        10.51758        -0.55752

