%chk=CCCCCqCCqCrCqCrNrSCSN.chk
%NProcShared=20
# opt freq b3lyp/6-31g(2df,p)

Title Card Required 

0  1
C           1.09910        -0.12641        -0.05982
C           2.61837        -0.29810        -0.08573
C           3.22520        -0.15536        -1.50184
C           4.69381         0.33200        -1.45160
C           5.15567         1.09780        -2.71813
C           4.62525         2.56162        -2.81543
C           3.08522         2.77795        -2.75646
C           2.51193         2.70185        -1.32679
C           2.59008         4.17022        -3.19829
C           3.09620         4.62792        -4.54395
N           1.11900         4.13067        -3.20362
S           7.01816         1.11459        -2.63063
C           7.54677         1.76953        -4.26469
S           9.39414         1.80124        -4.25234
N           9.79669         2.37620        -5.75607
H           0.69978        -0.46234         0.90149
H           0.62149        -0.68874        -0.86454
H           0.79117         0.92055        -0.15692
H           2.89253        -1.27428         0.31600
H           3.03819         0.43763         0.61661
H           2.61990         0.52184        -2.09275
H           3.11324        -1.07326        -2.08437
H           5.31471        -0.55404        -1.26434
H           4.86216         0.99590        -0.59062
H           4.87110         0.52116        -3.60524
H           4.98517         2.93254        -3.77995
H           5.08661         3.18754        -2.04312
H           2.64128         2.03347        -3.43581
H           2.71629         3.59691        -0.74027
H           2.93462         1.94697        -0.70065
H           1.42968         2.52952        -1.37195
H           2.91624         4.89297        -2.44538
H           2.77033         3.95796        -5.34270
H           4.18694         4.68525        -4.55208
H           2.72287         5.63661        -4.74377
H           0.76636         3.50433        -3.90333
H           0.72569         5.06762        -3.37321
H           7.18750         2.79174        -4.40742
H           7.19273         1.12700        -5.07617
H          10.81681         2.35910        -5.85302
H           9.55349         3.36120        -5.86323

