%chk=CCCCNCC1qCCOCrCCqCrC1.chk
%NProcShared=20
# opt freq b3lyp/6-31g(2df,p)

Title Card Required 

0  1
C           0.88052        -0.06178         0.02694
C           2.39421        -0.06698        -0.01896
C           2.96888         1.31882         0.26191
C           4.49216         1.24851         0.15889
N           5.08732         2.57507         0.24594
C           6.49224         2.62462         0.66084
C           6.85912         1.98679         2.03093
C           6.14789         2.66593         3.26962
C           4.61729         2.63005         3.17223
O           3.81041         3.07552         4.26399
C           2.43748         3.10572         3.80399
C           8.43259         1.98325         2.21284
C           8.49578         0.53273         1.67714
C           8.90764         0.29526         0.22316
C           7.00064         0.41059         2.03581
H           0.49786        -1.05120        -0.23936
H           0.47487         0.66679        -0.68109
H           0.51955         0.18889         1.02918
H           2.72732        -0.40228        -1.00699
H           2.77762        -0.78793         0.71412
H           2.67493         1.62174         1.27388
H           2.55984         2.06375        -0.42619
H           4.80454         0.77066        -0.77085
H           4.77685         0.60996         0.98686
H           4.52197         3.22873         0.73001
H           6.79525         3.68027         0.67780
H           7.05882         2.19679        -0.15674
H           6.46191         3.71753         3.32778
H           6.47130         2.20250         4.20778
H           4.29258         1.61959         2.91952
H           4.36320         3.35561         2.41460
H           1.80292         3.62408         4.52568
H           2.06941         2.08235         3.66843
H           2.34626         3.63621         2.84400
H           8.77212         2.04214         3.25574
H           9.00344         2.71711         1.63597
H           9.11382        -0.13205         2.29564
H           8.38884         0.92178        -0.50025
H           8.71003        -0.74069        -0.07189
H           9.97583         0.49024         0.08879
H           6.81824        -0.04349         3.01686
H           6.46940        -0.18532         1.29339

