%chk=CCCCCCCqCCCCCOrCqCrCC.chk
%NProcShared=20
# opt freq b3lyp/6-31g(2df,p)

Title Card Required 

0  1
C           0.88431         0.01938        -0.09964
C           2.39674         0.07595        -0.10576
C           2.97787        -1.09326         0.65475
C           4.50404        -0.97921         0.69315
C           5.00678        -2.20986         1.39977
C           6.50448        -2.41811         1.37750
C           7.00481        -3.71179         2.09247
C           6.50771        -5.02982         1.41532
C           5.00633        -5.24167         1.44110
C           4.49804        -6.49075         0.76815
C           2.97098        -6.38525         0.72313
C           2.38923        -7.57322        -0.00330
O           0.97693        -7.49697         0.00059
C           8.57487        -3.69482         2.15619
C           9.10233        -2.41844         2.83687
C           9.13984        -4.93924         2.88063
C          10.65885        -5.00115         2.88796
H           0.48162         0.88668        -0.62743
H           0.50038         0.02573         0.92549
H           0.52387        -0.88835        -0.59468
H           2.73829         1.00809         0.35455
H           2.76521         0.05719        -1.13781
H           2.67208        -2.03219         0.16677
H           2.58093        -1.13751         1.67728
H           4.83770        -0.06714         1.19046
H           4.88988        -0.97859        -0.33500
H           4.54691        -2.93701         0.76877
H           4.60452        -2.30592         2.41454
H           6.91328        -1.52979         1.86194
H           6.86753        -2.41834         0.34280
H           6.62600        -3.69876         3.12430
H           6.92091        -5.90153         1.92605
H           6.87075        -5.05862         0.38106
H           4.54550        -4.53263         0.79014
H           4.60350        -5.11671         2.45255
H           4.83268        -7.38891         1.28947
H           4.88393        -6.51869        -0.25964
H           2.65056        -5.46171         0.21483
H           2.56002        -6.30560         1.73852
H           2.70264        -8.50320         0.47768
H           2.73225        -7.58164        -1.04407
H           0.69246        -7.46059         0.93860
H           8.94962        -3.70360         1.12333
H           8.74179        -2.35372         3.86877
H           8.81038        -1.50804         2.31017
H          10.19378        -2.38415         2.84796
H           8.81378        -5.85824         2.38714
H           8.75902        -4.97515         3.90839
H          11.04410        -4.98671         1.86345
H          10.99152        -5.92626         3.36696
H          11.10137        -4.17168         3.44287

