%chk=CCCCCqCCCrCCCOO.chk
%NProcShared=20
# opt freq b3lyp/6-31g(2df,p)

Title Card Required 

0  1
C           0.92417         0.10161        -0.10605
C           2.45003         0.17063        -0.21269
C           2.99263         0.47045         1.16822
C           4.49624         0.39338         1.37480
C           4.93767         0.63978         2.84947
C           4.41498        -0.41574         3.87168
C           2.90611        -0.46351         4.10498
C           2.46490        -1.49452         5.11572
C           6.49112         0.67916         2.87423
C           7.07309         1.01703         4.24701
C           8.59134         1.02613         4.24222
O           9.02504         1.32236         5.56843
O          10.47657         1.28411         5.52722
H           0.47627        -0.14893        -1.06856
H           0.51383         1.05574         0.24241
H           0.61240        -0.66552         0.61695
H           2.76763         0.92082        -0.93751
H           2.82149        -0.81013        -0.53429
H           2.56235        -0.35607         1.69269
H           2.58544         1.40134         1.57996
H           4.97219         1.13598         0.72277
H           4.85772        -0.59135         1.05471
H           4.57605         1.63105         3.15616
H           4.84344        -0.20559         4.85595
H           4.78316        -1.40525         3.57571
H           2.38245        -0.84104         3.24661
H           2.51677         0.53407         4.33360
H           2.80909        -2.48560         4.79960
H           1.36864        -1.52001         5.12242
H           2.82875        -1.27614         6.11741
H           6.84715         1.42616         2.15164
H           6.88542        -0.28939         2.54010
H           6.76514         0.28640         5.00083
H           6.69261         1.98680         4.59100
H           8.97689         1.78604         3.55453
H           8.97571         0.04129         3.95049
H          10.61186         1.49261         6.46075

