%chk=CCCCCOCCqCCCrCCOCqCCCrCCC.chk
%NProcShared=20
# opt freq b3lyp/6-31g(2df,p)

Title Card Required 

0  1
C           1.06893         0.02088         0.01683
C           2.58708         0.01287         0.01272
C           3.09983        -1.27747        -0.60593
C           4.61748        -1.31379        -0.65753
C           5.05158        -2.60666        -1.32066
O           6.45181        -2.56174        -1.51481
C           6.93996        -3.82770        -1.92018
C           8.46002        -3.82217        -1.87185
C           8.98628        -3.65999        -0.40414
C           8.57091        -2.37380         0.32526
C           9.14762        -2.27699         1.72999
C           8.92088        -5.12876        -2.59115
C          10.42573        -5.19199        -2.61650
O          11.04752        -6.34841        -3.13348
C          12.49085        -6.28463        -2.96722
C          13.00073        -6.15340        -1.48895
C          12.75582        -4.82563        -0.75649
C          13.31135        -4.77213         0.64867
C          13.02216        -7.58780        -3.60142
C          14.54853        -7.65616        -3.65667
C          15.03792        -8.94901        -4.27963
H           0.69425         0.94842         0.45685
H           0.67791        -0.82046         0.59833
H           0.67799        -0.05933        -1.00301
H           2.96058         0.11185         1.03816
H           2.95731         0.87305        -0.55665
H           2.70426        -1.37897        -1.62428
H           2.73290        -2.13794        -0.03230
H           5.04464        -1.24960         0.35216
H           5.01650        -0.45444        -1.20959
H           4.57507        -2.72762        -2.29798
H           4.78071        -3.45463        -0.67940
H           6.59148        -4.01464        -2.94074
H           6.56210        -4.62027        -1.26273
H           8.83744        -2.95901        -2.43540
H          10.07486        -3.62547        -0.41904
H           8.69861        -4.53376         0.19252
H           7.48951        -2.32624         0.44906
H           8.88993        -1.50289        -0.25897
H           8.80020        -3.11207         2.34649
H           8.80649        -1.34917         2.20295
H          10.24089        -2.27560         1.72275
H           8.52166        -5.18724        -3.61106
H           8.53660        -6.00457        -2.05646
H          10.58339        -5.30204        -1.56053
H          10.86578        -4.28790        -3.03519
H          12.85799        -5.43722        -3.55999
H          14.08843        -6.26490        -1.48145
H          12.58361        -6.97837        -0.90045
H          11.71686        -4.67459        -0.52656
H          13.07756        -3.97597        -1.36420
H          12.91980        -5.60877         1.23734
H          12.95706        -3.85026         1.12658
H          14.39969        -4.78590         0.65912
H          12.61384        -7.68488        -4.61683
H          12.62511        -8.44869        -3.04665
H          14.97914        -7.60790        -2.65328
H          14.93556        -6.80009        -4.22056
H          14.69003        -9.81089        -3.70114
H          16.13240        -8.96521        -4.28444
H          14.68461        -9.05065        -5.30886

