%chk=CCCCCCqCrCCCCqCrCCOCC.chk
%NProcShared=20
# opt freq b3lyp/6-31g(2df,p)

Title Card Required 

0  1
C           0.93608        -0.08938        -0.05025
C           2.45038        -0.06583        -0.05559
C           2.96552         1.08006        -0.91867
C           4.48355         1.07071        -0.92247
C           5.04050         2.17484        -1.81156
C           6.57413         2.15817        -1.83882
C           7.10867         0.81562        -2.36900
C           7.06065         3.34818        -2.68615
C           8.57690         3.40837        -2.69505
C           9.12649         4.51218        -3.58235
C          10.66439         4.46054        -3.61156
C          11.18320         3.10621        -4.12971
C          11.19266         5.62426        -4.46295
C          12.71220         5.66381        -4.45119
O          13.18127         6.75319        -5.23490
C          14.60756         6.73045        -5.27248
C          15.08592         7.85662        -6.15662
H           0.57348        -0.90953         0.57513
H           0.54866        -0.23008        -1.06393
H           0.53775         0.85036         0.34438
H           2.82919        -1.02184        -0.43844
H           2.82360         0.04159         0.96911
H           2.59808         2.04052        -0.53888
H           2.59596         0.96854        -1.94467
H           4.80580         0.08932        -1.28412
H           4.86947         1.18711         0.09618
H           4.69375         3.14767        -1.43671
H           4.64865         2.07041        -2.82963
H           6.94303         2.29079        -0.81486
H           6.77618         0.64094        -3.39631
H           6.78512        -0.02648        -1.75240
H           8.20031         0.76496        -2.34529
H           6.66227         4.28784        -2.28032
H           6.68563         3.25639        -3.71107
H           8.93797         2.45944        -3.08879
H           8.95941         3.51267        -1.67512
H           8.78875         5.48544        -3.20211
H           8.72842         4.40691        -4.59724
H          11.02862         4.59043        -2.58488
H          10.83322         2.91815        -5.14896
H          10.87050         2.27132        -3.49729
H          12.27450         3.05428        -4.12227
H          10.80373         6.57806        -4.08179
H          10.82801         5.54593        -5.49408
H          13.11901         4.74492        -4.88151
H          13.07344         5.76922        -3.42230
H          14.95456         5.77115        -5.67480
H          14.99868         6.85274        -4.25649
H          14.70340         7.73126        -7.17453
H          16.17820         7.88046        -6.18727
H          14.71476         8.81714        -5.78722

