%chk=CCCCqCOCCCCqOrCOrOC.chk
%NProcShared=20
# opt freq b3lyp/6-31g(2df,p)

Title Card Required 

0  1
C           0.97367         0.03281        -0.04373
C           2.48784         0.03922        -0.01111
C           3.12036        -1.22891        -0.59616
C           4.66941        -1.22771        -0.56180
C           5.20754        -1.12496         0.87124
O           4.89672         0.13270         1.44317
C           5.23218         0.15481         2.81670
C           4.67071         1.43189         3.40200
C           5.13340         1.56286         4.84302
C           4.62389         2.84474         5.48689
O           3.19552         2.85491         5.46298
C           5.14489         2.94253         6.92632
O           4.72131         4.14646         7.55630
O           5.12786        -2.44792        -1.17493
C           6.54706        -2.51501        -1.29805
H           0.59816         0.95509         0.41400
H           0.58469        -0.80852         0.53834
H           0.59323        -0.02955        -1.06487
H           2.73982         0.14189         1.04502
H           2.87185         0.92218        -0.53509
H           2.78905        -1.35645        -1.63532
H           2.74546        -2.11171        -0.06170
H           5.01715        -0.37658        -1.16124
H           6.29515        -1.20708         0.89813
H           4.79870        -1.94937         1.46975
H           6.32225         0.12373         2.91174
H           4.80023        -0.71164         3.33301
H           3.57509         1.41168         3.33500
H           4.99413         2.29329         2.80529
H           6.22992         1.54281         4.87482
H           4.77342         0.69230         5.40640
H           4.95352         3.71586         4.91166
H           2.87691         2.13275         6.02451
H           6.23943         2.91877         6.94171
H           4.77041         2.10919         7.52793
H           4.89357         4.87571         6.94243
H           6.81087        -3.42225        -1.84496
H           7.02707        -2.59426        -0.31846
H           6.93161        -1.64261        -1.83435

