%chk=CCCCqCCCrOCCCqCrCC.chk
%NProcShared=20
# opt freq b3lyp/6-31g(2df,p)

Title Card Required 

0  1
C           0.73282        -0.26137        -0.21863
C           2.24084        -0.21367        -0.20896
C           2.94962        -1.38827         0.45629
C           4.49450        -1.27136         0.48760
C           5.02926        -0.08857         1.34971
C           4.73012         1.31644         0.84859
C           5.31894         2.41132         1.70731
O           4.97173        -2.54258         1.01110
C           6.39234        -2.63419         0.98907
C           6.92347        -3.93043         1.58389
C           8.47140        -3.90241         1.63640
C           9.00105        -2.71900         2.46718
C           9.00063        -5.23653         2.18650
C          10.52176        -5.31329         2.18133
H           0.36164         0.69047        -0.61914
H           0.35715        -0.34557         0.80524
H           0.34895        -1.07914        -0.82792
H           2.37851         0.66979         0.39287
H           2.65187        -0.01565        -1.20164
H           2.67814        -2.31277        -0.07429
H           2.58380        -1.52269         1.48053
H           4.86377        -1.18273        -0.54153
H           6.12353        -0.12331         1.39224
H           4.69434        -0.22552         2.38330
H           3.67924         1.55072         0.94348
H           5.01815         1.42102        -0.19913
H           4.95259         2.31325         2.73311
H           4.97131         3.37597         1.32353
H           6.41074         2.39502         1.70347
H           6.77551        -1.84612         1.62433
H           6.76255        -2.49888        -0.03275
H           6.56817        -4.78106         0.98946
H           6.50926        -4.07013         2.59068
H           8.84049        -3.78306         0.60861
H           8.64522        -2.77935         3.50094
H           8.70052        -1.75165         2.05637
H          10.09287        -2.68374         2.47821
H           8.60849        -6.06123         1.57905
H           8.63375        -5.39015         3.20842
H          10.91385        -5.16255         1.17047
H          10.85485        -6.28997         2.54134
H          10.96869        -4.56175         2.83832

