%chk=CCCCCCCCCqCCrCqCrCO.chk
%NProcShared=20
# opt freq b3lyp/6-31g(2df,p)

Title Card Required 

0  1
C           0.99079        -0.11778        -0.01307
C           2.50431        -0.11537        -0.01221
C           3.03704         1.11433         0.70503
C           4.55371         1.09590         0.67351
C           5.10732         2.32637         1.34930
C           6.62823         2.31090         1.26333
C           7.12126         3.52760         2.00558
C           8.62333         3.58859         2.15220
C           9.11291         4.82962         2.94027
C           8.60114         4.85841         4.41590
C           7.10561         5.03255         4.66500
C          10.68278         4.88383         2.89994
C          11.23918         4.88054         1.46222
C          11.24623         6.11254         3.63864
O          12.66684         6.11447         3.62144
H           0.61734        -1.00305        -0.53365
H           0.60380         0.77194        -0.51966
H           0.60401        -0.12712         1.01067
H           2.87412        -0.13008        -1.04429
H           2.87687        -1.02174         0.47942
H           2.68299         1.13319         1.74360
H           2.66561         2.02623         0.22098
H           4.90989         1.06067        -0.36211
H           4.92896         0.20007         1.18304
H           4.78423         2.34579         2.40010
H           4.71322         3.23845         0.88302
H           6.97119         2.30958         0.22429
H           7.01323         1.40504         1.74873
H           6.67570         3.40875         2.97801
H           6.73603         4.45090         1.55756
H           9.02295         3.59189         1.13415
H           8.99297         2.67693         2.63723
H           8.73561         5.72804         2.43209
H           9.04256         5.71715         4.92502
H           8.95415         3.96295         4.94040
H           6.66545         5.75897         3.97506
H           6.93078         5.37631         5.68816
H           6.55595         4.09223         4.62339
H          11.07370         3.98214         3.39211
H          10.86338         5.74081         0.89823
H          10.98061         3.97055         0.91525
H          12.33303         4.92133         1.45743
H          10.95708         6.13634         4.69014
H          10.89608         7.03841         3.16790
H          12.95741         5.29717         4.07485

