%chk=CCCCCCqOCCrCqCrqCrC.chk
%NProcShared=20
# opt freq b3lyp/6-31g(2df,p)

Title Card Required 

0  1
C           0.80215        -0.04222        -0.09318
C           2.30510        -0.12509        -0.13088
C           2.77556        -1.53559         0.23087
C           4.28705        -1.51310         0.20552
C           4.93840        -2.74597         0.81014
C           6.49747        -2.75440         0.85051
O           7.07211        -1.78488         1.77095
C           6.80991        -0.43035         1.45080
C           7.38802         0.59325         2.39708
C           7.03683        -4.17279         1.28184
C           6.56776        -4.52522         2.70933
C           6.56973        -5.28287         0.31543
C           8.58017        -4.17026         1.27477
H           0.47455         0.95725        -0.38809
H           0.43835        -0.24492         0.91856
H           0.36927        -0.77644        -0.77735
H           2.71725         0.60888         0.57907
H           2.68473         0.15377        -1.12057
H           2.38550        -2.28931        -0.46060
H           2.42816        -1.78469         1.24103
H           4.45938        -0.63996         0.81275
H           4.68798        -1.29504        -0.78606
H           4.58255        -3.58529         0.20234
H           4.54777        -2.88083         1.82204
H           6.88275        -2.53638        -0.15502
H           5.77207        -0.25886         1.69177
H           7.02878        -0.20991         0.40684
H           7.02777         0.39641         3.40995
H           7.01395         1.58269         2.10195
H           8.47763         0.59846         2.40056
H           5.47751        -4.60194         2.77181
H           6.89206        -3.77020         3.43370
H           6.97085        -5.49056         3.03362
H           5.48377        -5.41385         0.31911
H           6.99256        -6.25481         0.59531
H           6.88128        -5.06671        -0.71243
H           8.98979        -3.43056         1.97019
H           8.96774        -3.94537         0.27501
H           8.97647        -5.14881         1.57127

