%chk=CCCCqCOrCCOCCCqCCrCC.chk
%NProcShared=20
# opt freq b3lyp/6-31g(2df,p)

Title Card Required 

0  1
C           0.96417        -0.01339        -0.10805
C           2.47602         0.01772        -0.07816
C           3.07546        -1.38209        -0.03382
C           4.61456        -1.38525        -0.00496
C           5.20394        -0.67094         1.23302
O           4.93476         0.72013         1.27116
C           5.08134        -2.85193        -0.08155
C           6.58479        -2.94465        -0.17553
O           6.99366        -4.30359        -0.36396
C           8.40413        -4.31981        -0.19362
C           9.01742        -5.69502        -0.08964
C          10.56361        -5.61660         0.00352
C          11.10741        -4.86276         1.25253
C          10.86249        -3.36066         1.35883
C          11.11229        -7.06413        -0.02924
C          12.63279        -7.14537        -0.07133
H           0.58071         1.01117        -0.10959
H           0.57915        -0.51874         0.78336
H           0.59392        -0.53017        -0.99642
H           2.74695         0.57829         0.81712
H           2.86333         0.56070        -0.94806
H           2.73739        -1.93840        -0.91944
H           2.69261        -1.92630         0.83864
H           4.96570        -0.86140        -0.90517
H           6.29243        -0.74326         1.25784
H           4.81806        -1.12159         2.15421
H           5.07061         1.08238         0.37327
H           4.64374        -3.35797        -0.95010
H           4.73946        -3.41202         0.79886
H           7.01987        -2.56938         0.75813
H           6.96429        -2.33664        -1.00511
H           8.56237        -3.84676         0.76287
H           8.87356        -3.73576        -0.99325
H           8.70871        -6.28999        -0.95805
H           8.60861        -6.21025         0.78883
H          10.93026        -5.10101        -0.89519
H          12.19731        -4.94888         1.25993
H          10.74729        -5.35656         2.16213
H          11.00253        -2.86117         0.39571
H          11.55540        -2.91989         2.08137
H           9.88103        -3.11463         1.76378
H          10.72103        -7.58120        -0.91495
H          10.74691        -7.61727         0.84474
H          13.02653        -6.60683        -0.93875
H          12.95554        -8.18829        -0.13522
H          13.09069        -6.73157         0.83081

