%chk=CCCCCCCCCCCqCrCCCCCOC.chk
%NProcShared=20
# opt freq b3lyp/6-31g(2df,p)

Title Card Required 

0  1
C           0.94916        -0.10289        -0.08237
C           2.46617        -0.09418        -0.07711
C           2.99367         1.13686         0.64863
C           4.51498         1.14472         0.65318
C           5.03358         2.37697         1.37762
C           6.55287         2.37645         1.37236
C           7.07467         3.60797         2.08620
C           8.59511         3.60966         2.07069
C           9.08778         4.83931         2.80690
C          10.60747         4.87259         2.86864
C          11.10727         6.10324         3.63957
C          10.58016         6.11243         5.08201
C          12.64263         6.11828         3.60316
C          13.20479         7.35613         4.29120
C          14.72143         7.35188         4.27689
C          15.24446         8.57655         5.01535
C          16.76025         8.56555         5.02090
O          17.22395         9.72232         5.70766
C          18.64403         9.75231         5.72753
H           0.57776        -0.98887        -0.60470
H           0.55756         0.78496        -0.58875
H           0.55750        -0.11607         0.93965
H           2.83639        -0.10584        -1.10877
H           2.83638        -1.00249         0.41204
H           2.62266         1.14950         1.68065
H           2.62252         2.04582         0.16004
H           4.89239         1.13637        -0.37651
H           4.89305         0.24068         1.14513
H           4.66448         2.38880         2.41052
H           4.65992         3.28486         0.88949
H           6.92431         2.36275         0.34089
H           6.92869         1.47382         1.86753
H           6.71080         3.61893         3.12193
H           6.69490         4.51513         1.60243
H           8.96732         3.60905         1.03978
H           8.97363         2.70560         2.56020
H           8.66350         4.80853         3.81523
H           8.71508         5.74769         2.32221
H          11.00652         4.89164         1.84493
H          10.98294         3.95611         3.33671
H          10.73984         7.00214         3.13160
H          10.92134         5.22797         5.62743
H           9.48833         6.14180         5.11866
H          10.90115         7.00232         5.62872
H          12.98451         6.10188         2.55874
H          13.03785         5.21318         4.07753
H          12.88652         7.38944         5.33761
H          12.82176         8.25765         3.80196
H          15.08737         7.34558         3.24352
H          15.09126         6.44136         4.76193
H          14.87008         8.59394         6.04739
H          14.87559         9.49656         4.54669
H          17.13502         8.57322         3.99118
H          17.12435         7.66568         5.52894
H          18.96385        10.65169         6.25863
H          19.03578         9.78569         4.70643
H          19.03374         8.87401         6.25093

