%chk=CCCC1CCCCqOCrCqCCNNOrCC1.chk
%NProcShared=20
# opt freq b3lyp/6-31g(2df,p)

Title Card Required 

0  1
C           0.93472         0.09753         0.04444
C           2.44433         0.08813         0.09096
C           3.05312         1.14193        -0.82737
C           4.60762         1.12619        -0.86578
C           5.18419        -0.25269        -0.48495
C           6.69360        -0.41334        -0.47066
C           7.42553        -0.44219        -1.81133
C           6.69357        -1.10884        -3.00125
O           7.72182        -1.78500        -3.76503
C           7.24455        -2.51268        -4.89266
C           5.93252        -0.12217        -3.93350
C           6.91693         0.83109        -4.64361
C           6.20989         1.74439        -5.63016
N           7.18983         2.61162        -6.27014
N           6.49634         3.45749        -7.17387
O           7.40836         4.45021        -7.68381
C           4.72721         0.60162        -3.33135
C           5.05112         1.62401        -2.24392
H           0.54891        -0.68194         0.70742
H           0.58091        -0.11213        -0.97018
H           0.54184         1.06444         0.36543
H           2.75858        -0.91393        -0.22182
H           2.79112         0.24828         1.11677
H           2.72369         2.14546        -0.52900
H           2.63310         0.99755        -1.83101
H           4.96384         1.85246        -0.12324
H           4.74108        -1.04030        -1.10229
H           4.86833        -0.47148         0.54224
H           6.90090        -1.36764         0.03318
H           7.13518         0.35941         0.17112
H           8.38154        -0.95467        -1.63603
H           7.72933         0.57810        -2.05458
H           6.01876        -1.88918        -2.62992
H           8.09185        -3.02065        -5.35672
H           6.83494        -1.84811        -5.65906
H           6.49134        -3.24568        -4.59398
H           5.46555        -0.73156        -4.71743
H           7.67725         0.24938        -5.17877
H           7.46523         1.44179        -3.92027
H           5.48807         2.37677        -5.10322
H           5.67163         1.13685        -6.36920
H           7.88206         2.02331        -6.74327
H           5.82534         4.05633        -6.66532
H           8.00133         3.87577        -8.21115
H           4.00496        -0.15257        -3.00023
H           4.18259         1.12052        -4.13073
H           4.52314         2.56078        -2.47236
H           6.10510         1.90804        -2.23121

