%chk=CCCCCCCqCCCCrCqCrOC.chk
%NProcShared=20
# opt freq b3lyp/6-31g(2df,p)

Title Card Required 

0  1
C           0.84368        -0.00336         0.03453
C           2.35659        -0.05903         0.05257
C           2.93781         0.92803        -0.93330
C           4.46348         0.81794        -0.95012
C           4.96192         1.88061        -1.89689
C           6.45893         2.08860        -1.90876
C           6.98059         3.19555        -2.87316
C           6.51239         4.64837        -2.50070
C           5.00379         4.87135        -2.57089
C           4.45469         6.22278        -2.15865
C           2.92704         6.10772        -2.09444
C           8.54639         3.13331        -2.91800
C           9.05939         1.74706        -3.33304
O           9.02159         4.11688        -3.85149
C          10.43727         4.27176        -3.84541
H           0.43887        -0.74223         0.72954
H           0.45935        -0.21991        -0.96731
H           0.48455         0.98768         0.33174
H           2.69674        -1.06718        -0.20536
H           2.72456         0.17115         1.05869
H           2.63061         1.94743        -0.64811
H           2.54048         0.76001        -1.94201
H           4.79945        -0.17739        -1.25624
H           4.85229         1.02096         0.05469
H           4.49078         2.73004        -1.43791
H           4.56623         1.75874        -2.90798
H           6.86437         1.11472        -2.19801
H           6.82081         2.29739        -0.89675
H           6.60801         2.98838        -3.88598
H           6.97894         5.37006        -3.18263
H           6.86720         4.88460        -1.49197
H           4.55515         4.29549        -1.78531
H           4.59639         4.53332        -3.52821
H           4.76691         7.00654        -2.85144
H           4.82564         6.46798        -1.15708
H           2.51354         5.83571        -3.07139
H           2.47656         7.04496        -1.76501
H           2.61783         5.32450        -1.38631
H           8.92910         3.38497        -1.92022
H           8.71578         1.50245        -4.34357
H           8.75535         0.95503        -2.64774
H          10.15099         1.70438        -3.34319
H          10.69965         5.10838        -4.49706
H          10.92950         3.38381        -4.25076
H          10.80360         4.47835        -2.83530

