%chk=CCCCC1CCC1CCCqCrC.chk
%NProcShared=20
# opt freq b3lyp/6-31g(2df,p)

Title Card Required 

0  1
C           1.03890        -0.07004        -0.01080
C           2.55749        -0.06519        -0.00895
C           3.09521         0.55616        -1.29195
C           4.62051         0.56318        -1.30783
C           5.10061         1.20484        -2.60073
C           5.09707         2.75501        -2.62697
C           6.40340         2.68204        -3.43578
C           6.63969         1.28628        -2.80494
C           7.23912         0.25901        -3.75294
C           7.45948        -1.06984        -3.02906
C           8.08112        -2.14482        -3.93393
C           9.43896        -1.70897        -4.48560
C           8.23534        -3.45265        -3.15573
H           0.65981        -0.51266         0.91465
H           0.65213        -0.65227        -0.85328
H           0.64658         0.94895        -0.08998
H           2.92519        -1.09307         0.09092
H           2.92033         0.49764         0.85821
H           2.71787         1.58062        -1.39770
H           2.72441        -0.00599        -2.15815
H           4.98700        -0.46668        -1.23700
H           5.01125         1.10166        -0.43714
H           4.59665         0.77128        -3.47624
H           5.22003         3.22558        -1.64565
H           4.24704         3.21499        -3.13882
H           7.15415         3.43873        -3.18778
H           6.25049         2.67526        -4.52013
H           7.20510         1.36310        -1.86657
H           8.19064         0.65425        -4.12065
H           6.59387         0.10450        -4.62552
H           6.49955        -1.44104        -2.64902
H           8.09517        -0.90657        -2.15015
H           7.40409        -2.32722        -4.77750
H          10.13668        -1.48047        -3.67323
H           9.35097        -0.82032        -5.11755
H           9.87779        -2.49562        -5.10655
H           8.90509        -3.32606        -2.29838
H           8.64984        -4.23779        -3.79667
H           7.26766        -3.80240        -2.78060

