%chk=CCCNqCtCCqCrCrCCqCrC.chk
%NProcShared=20
# opt freq b3lyp/6-31g(2df,p)

Title Card Required 

0  1
C           0.90478         0.08002         0.01230
C           2.42205         0.09096         0.02285
C           3.02283        -0.80112        -1.07512
N           4.48382        -0.78413        -1.07424
C           5.19806        -0.01017        -0.09879
C           5.84999         0.70156         0.77783
C           6.60999         1.53129         1.79977
C           7.46724         0.61310         2.66667
C           7.48263         2.55407         1.07749
C           5.22215        -1.62233        -2.01458
C           6.75914        -1.54316        -1.83330
C           7.24376        -2.13253        -0.49786
C           7.46803        -2.30500        -2.95251
H           0.52542         0.72752         0.81094
H           0.51997        -0.92907         0.18051
H           0.51798         0.45199        -0.93996
H           2.76405        -0.24601         1.00856
H           2.76221         1.12544        -0.10378
H           2.66281        -0.46385        -2.05265
H           2.67703        -1.82999        -0.93433
H           5.88512         2.05551         2.43319
H           8.19546         0.05899         2.06259
H           6.84768        -0.12233         3.19145
H           8.01930         1.18853         3.41707
H           8.20952         2.06413         0.41877
H           8.03670         3.16944         1.79398
H           6.87393         3.22113         0.45730
H           4.96433        -1.29483        -3.02971
H           4.88890        -2.65931        -1.91737
H           7.07088        -0.49348        -1.90410
H           7.01197        -3.19710        -0.43130
H           6.80074        -1.67594         0.38646
H           8.32450        -1.99177        -0.39414
H           7.23220        -3.37194        -2.90466
H           8.55405        -2.19329        -2.85112
H           7.18111        -1.92817        -3.93794

