%chk=CCCNC1NCqdSrOC1CC.chk
%NProcShared=20
# opt freq b3lyp/6-31g(2df,p)

Title Card Required 

0  1
C           1.06002        -0.04058         0.08896
C           2.58012        -0.07341         0.06082
C           3.07160        -0.21644        -1.37811
N           4.52350        -0.25528        -1.41610
C           5.05296        -0.20622        -2.76300
N           5.66511        -1.46639        -2.97097
C           7.02299        -1.34899        -2.93871
S           8.12584        -2.56534        -3.00930
O           7.41520        -0.05508        -2.82534
C           6.23184         0.76482        -2.94569
C           6.29489         1.91700        -1.94358
C           5.08817         2.83718        -2.04751
H           0.69411         0.02818         1.11707
H           0.64719        -0.94794        -0.36341
H           0.67880         0.82174        -0.46852
H           2.93970        -0.90892         0.67227
H           2.96846         0.84989         0.51076
H           2.70079         0.64270        -1.95079
H           2.65824        -1.12130        -1.83414
H           4.90790        -1.05088        -0.91397
H           4.28540        -0.04042        -3.52695
H           5.19057        -2.34427        -3.09562
H           6.22600         1.17007        -3.96666
H           7.21231         2.49351        -2.10894
H           6.38781         1.52302        -0.92332
H           5.03702         3.29791        -3.03789
H           5.14125         3.62494        -1.29204
H           4.14770         2.30855        -1.88754

