%chk=CCCOCCCCCCqCrC1CCCO1.chk
%NProcShared=20
# opt freq b3lyp/6-31g(2df,p)

Title Card Required 

0  1
C           0.98583        -0.03965        -0.06318
C           2.50235        -0.01716        -0.09247
C           2.99207         0.85584        -1.23378
O           4.41528         0.86206        -1.23683
C           4.89213         1.67789        -2.30076
C           6.40635         1.67351        -2.27847
C           6.93767         2.54979        -3.40235
C           8.45763         2.53998        -3.39806
C           8.99703         3.38082        -4.54890
C          10.53674         3.39530        -4.61269
C          11.09109         1.98082        -4.82637
C          11.04322         4.33408        -5.72889
C          11.03047         5.80381        -5.32068
C          10.71521         6.50801        -6.61469
C           9.78882         5.52875        -7.29600
O          10.23252         4.22090        -6.91413
H           0.62664        -0.66674         0.75698
H           0.58625        -0.43763        -1.00174
H           0.58621         0.97040         0.07494
H           2.89649        -1.03380        -0.20602
H           2.89627         0.35883         0.85900
H           2.62644         1.88143        -1.10736
H           2.62958         0.46377        -2.19107
H           4.52026         2.70127        -2.17363
H           4.53042         1.28268        -3.25683
H           6.77506         0.64510        -2.38334
H           6.76884         2.02868        -1.30695
H           6.56787         3.57634        -3.28777
H           6.56748         2.17859        -4.36564
H           8.78879         1.50079        -3.49315
H           8.83611         2.92313        -2.44481
H           8.62148         4.40649        -4.43849
H           8.58423         2.99635        -5.48916
H          10.93096         3.75206        -3.65301
H          10.70721         1.53501        -5.74817
H          10.83489         1.31917        -3.99251
H          12.18439         1.99907        -4.87724
H          12.06145         4.05724        -6.02172
H          11.99092         6.11291        -4.89255
H          10.25743         6.01562        -4.57768
H          11.62824         6.63124        -7.20349
H          10.26121         7.49396        -6.46995
H           9.81054         5.61897        -8.38625
H           8.75547         5.65282        -6.95682

