%chk=CCCqCrOCqCCqCrCrNOC.chk
%NProcShared=20
# opt freq b3lyp/6-31g(2df,p)

Title Card Required 

0  1
C           1.13931        -0.06772        -0.44575
C           2.71632        -0.09747        -0.51314
C           3.46363         1.18475        -0.01355
C           2.88094         1.34944         1.22704
O           4.83345         1.17831         0.45643
C           5.12926         2.15006         1.58387
C           4.37274         1.94683         3.20790
C           2.58987         1.83988         3.55777
C           1.51659         0.57615         3.11916
C           2.31720         1.84411         5.02993
N           6.58375         2.15994         1.63326
O           6.98291         3.37104         2.32162
C           8.40137         3.30606         2.41264
H           0.71928        -0.79780        -1.14057
H           0.72396         0.92191        -0.66970
H           0.69339        -0.38282         0.50815
H           2.98066        -0.22818        -1.55393
H           3.04033        -0.98676         0.04827
H           3.18609         2.09833        -0.55350
H           3.27923         0.49967         1.87309
H           1.82917         1.61911         1.16786
H           3.14897         2.33762         1.57062
H           4.83212         3.15462         1.21883
H           4.71506         2.84106         3.77097
H           4.85056         1.07876         3.66979
H           2.17558         2.79475         3.16878
H           1.87164        -0.41412         3.40999
H           1.30434         0.33289         2.08432
H           0.46901         0.82658         3.33777
H           2.68776         0.89992         5.42840
H           1.22528         1.88387         5.15696
H           2.75385         2.70318         5.52999
H           6.85438         2.35888         0.66589
H           8.74969         4.11481         3.05445
H           8.82085         3.42595         1.40820
H           8.71044         2.34276         2.83284

