%chk=CCCqdCCCOrc1ccccqCrc1CC.chk
%NProcShared=20
# opt freq b3lyp/6-31g(2df,p)

Title Card Required 

0  1
C           0.38054         0.29510         0.19498
C           1.90646         0.31819         0.22719
C           2.79450         1.54431        -0.23015
C           2.13662         2.68172         0.16535
C           2.50137         4.08874        -0.03205
C           1.51044         5.09459         0.49105
O           2.01842         6.39511         0.21421
C           4.26233         1.59302        -0.97162
C           4.81918         2.86981        -1.30372
C           6.02823         3.14288        -1.96932
C           6.81931         2.11122        -2.38593
C           6.40871         0.82135        -2.09596
C           7.28409        -0.32056        -2.55362
C           5.17846         0.54122        -1.38214
C           5.06915        -0.96981        -1.18732
C           3.90018        -1.25198        -0.39085
H           0.05586        -0.74758         0.35884
H           0.04301         0.57131        -0.80901
H          -0.07524         0.90286         0.96839
H           1.90538        -0.49993        -0.46498
H           2.23348        -0.03235         1.21746
H           1.20928         2.56871         0.71226
H           2.57326         4.27872        -1.11017
H           3.44468         4.28256         0.49418
H           1.38258         4.98106         1.56949
H           0.54965         4.96929        -0.01390
H           2.92280         6.43561         0.57471
H           4.37199         3.81547        -1.07967
H           6.31982         4.17466        -2.15854
H           7.74061         2.31412        -2.91997
H           8.17528         0.02159        -3.07708
H           6.71684        -0.96240        -3.23663
H           7.61615        -0.89994        -1.68650
H           5.91637        -1.40313        -0.65843
H           4.91644        -1.45142        -2.16348
H           4.01068        -0.68346         0.54111
H           3.57394        -2.25752        -0.16785
H           3.23491        -0.88853        -1.17007

