%chk=CCNC1NC1C1CCCdCCNCC1.chk
%NProcShared=20
# opt freq b3lyp/6-31g(2df,p)

Title Card Required 

0  1
C           1.01739         0.05160        -0.05318
C           2.52929         0.05191        -0.07157
N           3.02644        -1.28362        -0.39768
C           4.46907        -1.29340        -0.34476
N           5.13654        -2.02196        -1.39281
C           5.25119        -0.56255        -1.40650
C           6.53160         0.15125        -1.03246
C           6.21446         1.38679        -0.14657
C           7.35464         2.40890        -0.01361
C           8.20429         2.46116        -1.24885
C           9.41683         1.87235        -1.33118
C          10.14638         1.26855        -0.17183
N           9.91138        -0.15779        -0.00844
C           8.60004        -0.48725         0.55067
C           7.60360        -0.84807        -0.53977
H           0.65127         1.06135         0.15407
H           0.63803        -0.61903         0.72377
H           0.61328        -0.26699        -1.01932
H           2.90811         0.36700         0.90810
H           2.87838         0.78123        -0.81246
H           2.67968        -1.57139        -1.30875
H           4.90504        -1.36110         0.64888
H           4.50350        -2.35713        -2.10998
H           4.71821        -0.05547        -2.20305
H           6.88056         0.53301        -2.00047
H           5.89763         1.06420         0.85403
H           5.34788         1.91847        -0.56603
H           7.94101         2.15324         0.86867
H           6.96957         3.40680         0.22067
H           7.74505         2.85124        -2.15355
H           9.90554         1.81308        -2.29985
H           9.95256         1.80554         0.76195
H          11.21650         1.41712        -0.35497
H          10.62212        -0.52874         0.61912
H           8.22447         0.21352         1.30036
H           8.74180        -1.40635         1.13696
H           7.12564        -1.75681        -0.16520
H           8.14556        -1.18535        -1.43489

