%chk=CCOCqCNrCCCCCqCrCqCrN.chk
%NProcShared=20
# opt freq b3lyp/6-31g(2df,p)

Title Card Required 

0  1
C           0.90340        -0.02910        -0.05488
C           2.40879        -0.03823         0.02875
O           2.99983        -0.71891        -1.07586
C           4.44226        -0.70880        -1.01804
C           5.00586        -1.45693         0.22808
N           4.72738        -0.80801         1.50910
C           4.94076        -1.37842        -2.31076
C           6.46357        -1.39363        -2.39172
C           6.94110        -2.06076        -3.66422
C           8.46620        -2.07402        -3.68769
C           9.02969        -2.75387        -4.94568
C           8.53144        -2.02631        -6.20598
C          10.57868        -2.79495        -4.90244
C          11.12293        -3.54533        -3.68326
N          11.09070        -3.44068        -6.11392
H           0.50048         0.45608         0.84078
H           0.52832        -1.05681        -0.08767
H           0.54998         0.49415        -0.94399
H           2.60727        -0.58495         0.94605
H           2.80425         0.98153         0.09600
H           4.78501         0.33437        -1.02548
H           6.09317        -1.52708         0.18021
H           4.59929        -2.47342         0.24172
H           5.08898         0.13733         1.52068
H           5.14137        -1.33592         2.27698
H           4.53055        -0.84936        -3.18232
H           4.54819        -2.40145        -2.38092
H           6.89822        -1.95060        -1.55797
H           6.84758        -0.36758        -2.33757
H           6.52985        -1.51309        -4.51473
H           6.56784        -3.09113        -3.71038
H           8.80290        -2.60331        -2.78865
H           8.85245        -1.04929        -3.61016
H           8.64807        -3.78417        -4.97372
H           8.84660        -0.97732        -6.19731
H           7.44100        -2.05190        -6.28512
H           8.90564        -2.49401        -7.11987
H          10.96076        -1.76697        -4.87735
H          10.74491        -4.57313        -3.64679
H          10.84996        -3.05094        -2.74626
H          12.21732        -3.58332        -3.70253
H          10.75771        -4.40325        -6.15612
H          12.10714        -3.48497        -6.08386

