%chk=CCOCqCCCCCCCCqCrCrC1CCCqOrC1.chk
%NProcShared=20
# opt freq b3lyp/6-31g(2df,p)

Title Card Required 

0  1
C           0.80152        -0.23850        -0.10635
C           2.30383        -0.19081        -0.05113
O           2.95149        -1.40632         0.29979
C           4.39369        -1.31798         0.27729
C           4.99315        -0.44578         1.41320
C           4.72636         1.03745         1.26088
C           5.23012         1.89441         2.38763
C           4.62169         3.27482         2.16678
C           5.05932         4.18669         3.27878
C           4.50154         5.57021         3.03594
C           4.95874         6.49419         4.14985
C           4.43368         7.91728         3.96088
C           2.90492         7.96045         3.95261
C           4.97835         8.80249         5.07727
C           4.97710        -2.73946         0.43241
C           6.42912        -2.82952        -0.08725
C           6.41351        -3.91310        -1.16251
C           5.27124        -4.82497        -0.74489
O           5.67009        -5.66686         0.32613
C           4.19826        -3.83968        -0.30490
H           0.43503         0.78882        -0.23976
H           0.42021        -0.60096         0.85405
H           0.42729        -0.87082        -0.90627
H           2.38329         0.45773         0.79575
H           2.74556         0.26424        -0.94561
H           4.70026        -0.92288        -0.70088
H           6.08148        -0.57644         1.45011
H           4.59151        -0.78706         2.37529
H           3.67987         1.24663         1.35079
H           5.04447         1.40368         0.27943
H           6.32076         1.92619         2.40953
H           4.87068         1.49517         3.34535
H           3.52117         3.22123         2.15413
H           4.91970         3.67206         1.18768
H           6.15237         4.21255         3.32386
H           4.69023         3.79670         4.23535
H           3.40888         5.50141         3.00088
H           4.83537         5.95273         2.06346
H           6.05673         6.50463         4.17241
H           4.62897         6.09216         5.11667
H           4.80013         8.30189         3.00055
H           2.49680         7.54257         4.87926
H           2.48655         7.39352         3.11517
H           2.54653         8.98779         3.84720
H           4.64178         8.44818         6.05775
H           4.64013         9.83457         4.95005
H           6.07361         8.80098         5.07544
H           4.97416        -3.00421         1.50013
H           7.09792        -3.11875         0.73264
H           6.81056        -1.88636        -0.49241
H           7.37650        -4.42837        -1.22086
H           6.19611        -3.45566        -2.13475
H           4.92780        -5.46698        -1.56326
H           5.99226        -5.10393         1.06475
H           3.45693        -4.30078         0.35737
H           3.68267        -3.43052        -1.18020

