%chk=CCOCqOrCqOCrCqCrCCdO.chk
%NProcShared=20
# opt freq b3lyp/6-31g(2df,p)

Title Card Required 

0  1
C           1.01161         0.01014        -0.08685
C           2.51724         0.08322        -0.07201
O           3.00572        -1.20943         0.26366
C           4.42054        -1.25384         0.17937
O           4.85715        -0.39699         1.21454
C           4.94693        -2.71654         0.33095
O           4.49436        -3.56626        -0.75151
C           3.07537        -3.72239        -0.80637
C           6.51183        -2.76416         0.35191
C           7.10564        -1.89716         1.47369
C           7.01853        -4.21137         0.51082
C           8.52720        -4.29381         0.48494
O           9.14675        -5.33903         0.68884
H           0.58932         1.00367        -0.24757
H           0.64070        -0.39545         0.86002
H           0.66941        -0.66189        -0.88027
H           2.84078         0.80280         0.68637
H           2.89755         0.39074        -1.05243
H           4.75234        -0.87211        -0.79546
H           4.57038        -0.83582         2.03265
H           4.57607        -3.14612         1.27113
H           2.82120        -4.47916        -1.55178
H           2.59466        -2.80768        -1.15665
H           2.67579        -4.02770         0.16629
H           6.87879        -2.38964        -0.61461
H           6.69247        -2.19458         2.44306
H           6.92750        -0.83503         1.31139
H           8.19269        -1.95627         1.53387
H           6.65045        -4.84468        -0.30281
H           6.67125        -4.62476         1.46435
H           9.07792        -3.36497         0.26719

