%chk=CCOCqCCrCqCNrqCOCrCCqCrCC.chk
%NProcShared=20
# opt freq b3lyp/6-31g(2df,p)

Title Card Required 

0  1
C           0.73518        -0.11821         0.12895
C           2.23731        -0.15635        -0.00617
O           2.86401         0.81557         0.79859
C           4.30291         0.79104         0.80789
C           4.88293         1.20686        -0.56941
C           4.67832         0.28265        -1.76134
C           4.76366         1.73250         2.00368
C           4.26196         3.19826         1.79462
N           4.83651         3.87201         0.62783
C           4.12278         1.17617         3.31469
O           2.70789         1.04478         3.37863
C           2.30925         0.69737         4.70311
C           6.34009         1.72360         2.19174
C           6.95227         2.64277         3.30522
C           6.57547         2.24379         4.73749
C           8.49281         2.67224         3.19530
C           9.11595         3.63236         4.20844
H           0.30126        -0.76858        -0.63791
H           0.37306         0.90142        -0.04013
H           0.39685        -0.44138         1.11439
H           2.38167         0.12756        -1.03388
H           2.64501        -1.15477         0.17938
H           4.63988        -0.22772         1.04998
H           5.96271         1.34128        -0.48181
H           4.43195         2.15104        -0.87715
H           4.82886        -0.76576        -1.49788
H           5.37111         0.56322        -2.55855
H           3.70036         0.41504        -2.22709
H           4.50531         3.80608         2.67335
H           3.17297         3.21443         1.71417
H           5.83997         3.90993         0.65385
H           4.47038         4.82607         0.54059
H           4.30527         1.89718         4.08693
H           4.58704         0.21820         3.58325
H           1.21966         0.70140         4.75243
H           2.69037         1.42427         5.43126
H           2.68230        -0.29997         4.95511
H           6.81027         2.03186         1.25009
H           6.67881         0.69044         2.35053
H           6.61221         3.66903         3.12584
H           6.68916         1.16629         4.88695
H           5.58119         2.57468         5.01535
H           7.15227         2.75254         5.50528
H           8.78773         2.99384         2.18903
H           8.89769         1.66429         3.34417
H           8.69576         4.63689         4.09160
H          10.19895         3.67987         4.08986
H           8.94677         3.31690         5.24114

