%chk=CCqCrCCC1dC2CCCCqC2rC1N.chk
%NProcShared=20
# opt freq b3lyp/6-31g(2df,p)

Title Card Required 

0  1
C           0.85537         0.12779        -0.10878
C           2.37215         0.16182        -0.09400
C           2.91906         1.55391        -0.40463
C           2.73824        -0.29360         1.29991
C           4.20215        -0.37302         1.49424
C           4.33361        -0.96971         2.92026
C           4.77243        -2.23532         3.17603
C           5.17885        -3.06743         4.46308
C           5.37871        -2.19385         5.67342
C           6.45961        -1.16601         5.25798
C           6.38639        -0.80069         3.72715
C           6.13933        -2.04064         2.64307
C           5.10541         0.09255         3.65253
N           4.21195         0.56517         4.71290
H           0.46304         0.42234        -1.07940
H           0.45717         0.79722         0.66301
H           0.50363        -0.88491         0.12531
H           2.77145        -0.54919        -0.82994
H           2.62034         2.27208         0.36645
H           2.55335         1.90431        -1.37240
H           4.01468         1.55983        -0.45439
H           2.33223        -1.29550         1.47909
H           2.31867         0.38502         2.05377
H           4.68256         0.61221         1.38923
H           4.65907        -0.95404         0.68691
H           6.20381        -3.47175         4.35160
H           4.60123        -3.97600         4.59716
H           5.71896        -2.76015         6.54967
H           4.41088        -1.78612         5.96621
H           7.45448        -1.55636         5.48346
H           6.34845        -0.26553         5.88193
H           7.27740        -0.25180         3.40511
H           6.74059        -2.95145         2.66241
H           5.97121        -1.93700         1.55730
H           5.39081         1.00469         3.12231
H           3.95008        -0.19651         5.32125
H           3.30944         0.79538         4.27430

