%chk=CCqCrCCOCC1qCrOCC1C.chk
%NProcShared=20
# opt freq b3lyp/6-31g(2df,p)

Title Card Required 

0  1
C           0.97312        -0.08311         0.02019
C           2.49842        -0.05401         0.03792
C           2.99003         1.35686         0.37563
C           3.02410        -1.10789         1.02490
C           4.54000        -1.16268         1.01372
O           5.00405        -2.20409         1.86985
C           6.42811        -2.10361         1.95339
C           7.03565        -3.08289         2.95917
C           8.34246        -2.49565         3.49463
O           6.16034        -3.43107         4.07514
C           6.46439        -4.84032         3.87938
C           7.02038        -4.55687         2.48045
C           8.34283        -5.18060         2.08599
H           0.58162         0.63514        -0.70728
H           0.56396         0.16818         1.00408
H           0.60787        -1.07712        -0.25750
H           2.85722        -0.30890        -0.96749
H           2.68980         1.64682         1.38791
H           2.58237         2.08970        -0.32755
H           4.08011         1.43422         0.31097
H           2.62920        -2.09921         0.77140
H           2.67328        -0.89725         2.04292
H           4.94554        -0.20875         1.36551
H           4.90576        -1.35214        -0.00135
H           6.68692        -1.07853         2.23791
H           6.85067        -2.29317         0.95940
H           8.17379        -1.49465         3.90713
H           9.07544        -2.40180         2.68806
H           8.77486        -3.10873         4.29202
H           5.56818        -5.46920         3.90610
H           7.18488        -5.19676         4.62291
H           6.26523        -4.75206         1.70490
H           9.10686        -5.04101         2.85700
H           8.71173        -4.72733         1.15991
H           8.23208        -6.25472         1.91686

