%chk=CCqCCOCCqCrqCOrCCCOrOO.chk
%NProcShared=20
# opt freq b3lyp/6-31g(2df,p)

Title Card Required 

0  1
C           1.05723        -0.05543        -0.16782
C           2.58234        -0.04730        -0.08210
C           3.06620        -0.03310         1.36781
C           2.57044         1.19735         2.10257
O           3.01212         1.13370         3.44676
C           2.61003         2.29238         4.16845
C           3.14882         2.21500         5.60899
C           2.59504         0.93216         6.26678
C           4.70311         2.21799         5.59655
O           5.31361         1.12320         4.92652
C           2.62908         3.46898         6.37062
C           3.07805         3.53000         7.83064
C           2.55271         4.75657         8.55254
O           3.02237         4.73487         9.89455
O           3.04433        -1.23413        -0.73857
O           4.48250        -1.07585        -0.90099
H           0.61063         0.84373         0.26616
H           0.64761        -0.93037         0.34943
H           0.72851        -0.11254        -1.20913
H           2.96400         0.82980        -0.62031
H           4.16354        -0.06108         1.40936
H           2.75359        -0.94716         1.88933
H           1.47871         1.23595         2.11908
H           2.95692         2.10337         1.62166
H           1.51252         2.33931         4.17376
H           2.98413         3.19226         3.66366
H           2.85818         0.02733         5.71079
H           1.49995         0.96693         6.31905
H           2.97625         0.80034         7.28287
H           5.10349         2.20051         6.61160
H           5.06728         3.13215         5.11566
H           4.82421         0.32009         5.13873
H           1.53080         3.48943         6.33412
H           2.96655         4.37675         5.85182
H           4.17001         3.53885         7.90281
H           2.74497         2.63905         8.37258
H           1.45932         4.77387         8.56525
H           2.91575         5.67239         8.07774
H           2.74470         3.89167        10.29027
H           4.64995        -1.97975        -1.22394

