%chk=CCqOrCC1CCCCC1CCCCO.chk
%NProcShared=20
# opt freq b3lyp/6-31g(2df,p)

Title Card Required 

0  1
C           0.89334         0.07571        -0.04032
C           2.40602         0.20893        -0.12022
O           2.70898         1.56498         0.18981
C           3.05989        -0.72965         0.88858
C           4.60706        -0.79380         1.01628
C           5.27434         0.12417        -0.01678
C           6.78129         0.19354         0.08244
C           7.18749         0.59919         1.48793
C           6.64906        -0.39211         2.51204
C           5.10911        -0.51820         2.47469
C           4.69649        -1.59355         3.53007
C           3.19338        -1.79778         3.66182
C           2.73177        -2.82807         4.66762
C           1.20836        -2.93099         4.57714
O           0.73832        -3.92417         5.46942
H           0.42536         0.75702        -0.75575
H           0.53413         0.36653         0.95478
H           0.56592        -0.94691        -0.24530
H           2.74508        -0.01411        -1.13639
H           2.65152         1.67319         1.15999
H           2.69713        -1.74932         0.69892
H           2.64972        -0.39010         1.83983
H           4.91247        -1.82509         0.78031
H           4.92153         1.14856         0.12030
H           4.99696        -0.19499        -1.02754
H           7.14295         0.93686        -0.63752
H           7.22292        -0.77051        -0.19056
H           6.80333         1.60281         1.71172
H           8.27900         0.65133         1.54983
H           6.97062        -0.07720         3.51205
H           7.10300        -1.37410         2.32681
H           4.69036         0.44689         2.79400
H           5.09229        -1.29611         4.50998
H           5.16671        -2.55107         3.27648
H           2.81749        -2.18936         2.71885
H           2.71139        -0.83689         3.88194
H           3.04303        -2.56458         5.68224
H           3.17913        -3.80108         4.43362
H           0.88544        -3.19581         3.56212
H           0.73489        -1.97619         4.83180
H           1.17031        -4.75759         5.21801

