%chk=CCtCCqCrCqCCqCrCClrCqCrCC.chk
%NProcShared=20
# opt freq b3lyp/6-31g(2df,p)

Title Card Required 

0  1
C          -2.57801        -0.61896        -0.02747
C          -1.11733        -0.72728        -0.13844
C           0.06782        -0.43755        -0.20435
C           1.38772         0.27663        -0.05138
C           2.31442        -0.88675         0.18436
C           1.72531         1.30936        -1.22802
C           0.88463         2.67546        -1.19450
C          -0.64284         2.54617        -1.14172
C          -1.03982         2.13587         0.25364
C          -1.42444         3.84230        -1.31699
Cl         -3.19577         3.51504        -1.37192
C           3.26080         1.71096        -1.30226
C           4.21470         0.51702        -1.43901
C           3.57036         2.61877        -2.52298
C           5.03842         3.02587        -2.58580
H          -2.91277         0.12646         0.71091
H          -3.03859        -1.55164         0.28469
H          -2.98581        -0.28501        -0.98849
H           1.44211         0.87441         0.87752
H           2.44532        -1.41679        -0.76426
H           1.90350        -1.58016         0.92156
H           3.23145        -0.56090         0.66279
H           1.46691         0.81199        -2.17156
H           1.09945         3.25979        -2.09708
H           1.22185         3.28746        -0.34694
H          -0.92605         1.82693        -1.92770
H          -0.82787         2.82084         1.06823
H          -0.42406         1.35588         0.58265
H          -2.06768         1.80395         0.27081
H          -1.16884         4.38615        -2.22117
H          -1.24923         4.47276        -0.43788
H           3.50498         2.27244        -0.38784
H           3.91287        -0.11294        -2.27930
H           4.33595        -0.08896        -0.56145
H           5.25537         0.80611        -1.54624
H           2.99804         3.54902        -2.50394
H           3.29295         2.08454        -3.44038
H           5.31558         3.56203        -1.67276
H           5.22614         3.65568        -3.45472
H           5.71007         2.17377        -2.69994

