%chk=CdC1CdCCdCqCqdCrCCqdCNOrCNOrN1.chk
%NProcShared=20
# opt freq b3lyp/6-31g(2df,p)

Title Card Required 

0  1
C           0.69607        -0.03168        -0.06699
C           2.02320        -0.06686        -0.07004
C           2.77023        -1.32921        -0.06914
C           4.10858        -1.34149        -0.06960
C           4.77674        -0.08596        -0.08023
C           4.08487         1.08919        -0.09863
C           4.73456         2.34516        -0.11034
C           6.03450         2.14087        -0.04644
C           4.32331         3.85345        -0.10246
C           5.56422         5.03488        -0.11162
C           6.97258         4.97016        -0.12659
N           7.96935         3.95978        -0.24411
O           9.31929         3.95418         0.00628
C           4.88608         6.42980        -0.10534
N           5.88874         7.50374        -0.08936
O           5.18681         8.76139        -0.21333
N           2.73619         1.09474        -0.07859
H           0.13479        -0.94854        -0.06684
H           0.19462         0.92878        -0.06829
H           2.24655        -2.26820        -0.06898
H           4.73448        -2.22755        -0.06936
H           5.85461        -0.21304        -0.07422
H           6.74338         1.35277        -0.03993
H           6.29269         3.09287         0.18701
H           3.69822         4.04558         0.78821
H           3.68613         4.04157        -0.98077
H           7.53883         5.89051        -0.07046
H           7.74822         2.98166        -0.25436
H           9.61996         4.85102        -0.14093
H           4.23544         6.54067         0.77418
H           4.24288         6.54579        -0.99084
H           6.40441         7.45171        -0.97363
H           4.95977         8.94616         0.71849
H           2.26921         1.98850        -0.06536

