%chk=CdCCCCCqdOrCNqCrC1qCrCqdOrC1CCCC.chk
%NProcShared=20
# opt freq b3lyp/6-31g(2df,p)

Title Card Required 

0  1
C           1.07694         0.00100        -0.02288
C           2.41297         0.02325        -0.00427
C           3.17398         0.99557         0.84098
C           4.66127         0.79268         0.66230
C           5.46235         1.76733         1.50677
C           6.92179         1.47601         1.26621
O           7.27118         0.49161         0.61337
C           7.89166         2.41841         1.94149
N           9.29521         2.10026         1.60909
C           9.55988         2.23599         0.17466
C          10.23406         2.82964         2.52805
C           9.93910         2.55212         3.98184
C          11.59996         3.06428         2.11948
O          12.44065         2.58012         1.37848
C          10.77975         4.23147         2.05215
C          11.09694         5.38088         2.93517
C          10.02479         6.45484         2.82780
C          10.35916         7.61704         3.74964
C           9.29231         8.68939         3.66583
H           0.54216        -0.71093        -0.64084
H           0.50113         0.69447         0.58106
H           2.96838        -0.68512        -0.61848
H           2.91637         0.85277         1.89665
H           2.91468         2.02112         0.55555
H           4.93887         0.91842        -0.39361
H           4.93249        -0.23630         0.93817
H           5.24648         1.63560         2.57331
H           5.24610         2.80393         1.22556
H           7.68571         2.25291         3.00639
H           7.66185         3.46572         1.71711
H           8.92272         1.59875        -0.44117
H          10.57675         1.92110        -0.06711
H           9.39862         3.26184        -0.16501
H           9.68754         1.48895         4.10068
H           9.06604         3.13777         4.28942
H          10.75672         2.78426         4.66314
H          10.46796         4.58802         1.07514
H          12.06397         5.80333         2.63085
H          11.20270         5.04724         3.97086
H           9.04706         6.02882         3.08377
H           9.94945         6.81302         1.79196
H          11.33112         8.04281         3.47309
H          10.44143         7.25721         4.78153
H           9.21552         9.08126         2.64658
H           9.53714         9.51670         4.33684
H           8.31626         8.28633         3.95359

