%chk=CdCCqCCrOCC1CCCqCrC1.chk
%NProcShared=20
# opt freq b3lyp/6-31g(2df,p)

Title Card Required 

0  1
C           0.94539         0.32123        -0.08736
C           2.26932         0.07748        -0.13284
C           2.95474        -0.88518         0.79930
C           2.59074        -2.36068         0.55144
C           1.13189        -2.69653         0.77880
O           4.37427        -0.69928         0.67571
C           5.15478        -1.48952         1.58528
C           4.79263        -1.19328         3.04786
C           5.37870        -2.19084         4.02965
C           6.82191        -1.75479         4.18059
C           6.83550        -0.24318         3.88916
C           7.29302         0.56256         5.08926
C           5.40834         0.13372         3.47274
H           0.45885         0.97856        -0.79390
H           0.30915        -0.16595         0.64517
H           2.88444         0.61500        -0.84677
H           2.64436        -0.56738         1.79763
H           3.14568        -3.00935         1.23595
H           2.90784        -2.65234        -0.45671
H           0.81803        -2.36409         1.77430
H           0.97803        -3.77548         0.71105
H           0.49322        -2.24014         0.02211
H           6.20851        -1.26253         1.38300
H           5.05951        -2.55344         1.34834
H           3.71616        -1.17646         3.21628
H           5.27408        -3.22793         3.69696
H           4.85834        -2.09906         4.99233
H           7.43758        -2.27970         3.44091
H           7.20650        -2.01110         5.17176
H           7.52010        -0.05204         3.05262
H           6.62999         0.39570         5.94492
H           7.29342         1.63199         4.85861
H           8.30568         0.26860         5.37923
H           5.40173         0.88002         2.66889
H           4.84033         0.55858         4.30870

