%chk=CN1CCCCCCCCCCCOC1.chk
%NProcShared=20
# opt freq b3lyp/6-31g(2df,p)

Title Card Required 

0  1
C           0.88310         0.03569         0.23082
N           2.33421        -0.07282         0.08944
C           2.79940        -1.43026        -0.24236
C           1.84229        -2.37922        -0.99069
C           1.99419        -2.31550        -2.50374
C           0.82697        -3.02706        -3.20222
C           0.41727        -2.30289        -4.48175
C          -0.17321        -0.91686        -4.17364
C           0.60664         0.17010        -4.90821
C           0.16924         1.58421        -4.51248
C           1.26677         2.33151        -3.74824
C           0.88160         2.63547        -2.30234
C           2.10439         3.11386        -1.51019
O           2.39852         2.24762        -0.41724
C           2.86057         0.95258        -0.80002
H           0.49356        -0.72786         0.90904
H           0.37786        -0.06720        -0.73510
H           0.58704         0.99863         0.66029
H           3.03149        -1.91018         0.71418
H           3.76302        -1.38855        -0.77447
H           0.79782        -2.18497        -0.72521
H           2.02047        -3.40812        -0.65851
H           2.93844        -2.78864        -2.80186
H           2.06906        -1.27155        -2.81798
H          -0.05190        -3.09361        -2.54797
H           1.11751        -4.05801        -3.43541
H          -0.33046        -2.90212        -5.01282
H           1.28891        -2.23084        -5.14474
H          -0.16901        -0.71186        -3.09582
H          -1.22504        -0.89053        -4.48253
H           0.46147         0.03520        -5.98592
H           1.67885         0.02703        -4.72871
H          -0.77398         1.56966        -3.95235
H          -0.03147         2.14064        -5.43542
H           1.48146         3.27847        -4.25600
H           2.20542         1.76590        -3.76487
H           0.42916         1.75586        -1.84205
H           0.10765         3.41318        -2.29555
H           1.88918         4.09883        -1.08695
H           3.00059         3.22448        -2.13439
H           3.95596         0.97979        -0.74704
H           2.59226         0.72167        -1.83699

