%chk=COC1OC2CqCrCOCqCrCCCOCC12.chk
%NProcShared=20
# opt freq b3lyp/6-31g(2df,p)

Title Card Required 

0  1
C           0.92272        -0.53382         0.12967
O           2.32808        -0.67143        -0.06428
C           3.05471         0.40454        -0.58227
O           4.14071         0.03987        -1.63499
C           4.34364         1.51909        -1.64102
C           5.30220         2.28851        -2.57993
C           6.63969         1.71415        -3.07175
C           5.72170         3.51932        -1.70634
O           5.05218         4.63774        -2.23500
C           4.45976         5.58298        -1.33981
C           4.13088         5.05209         0.07029
C           3.24429         6.13918        -2.13563
C           1.89342         5.55887        -1.72142
C           1.91850         4.10614        -2.12556
O           0.85279         3.38616        -1.59133
C           1.29765         2.14946        -1.02543
C           2.56719         1.46161        -1.62526
H           0.56449        -1.35266         0.74260
H           0.47296        -0.58998        -0.86110
H           0.64089         0.39144         0.64470
H           3.47615         0.96964         0.28776
H           4.93646         1.57985        -0.71008
H           4.74335         2.60463        -3.46783
H           7.39161         1.59089        -2.28095
H           7.08429         2.45802        -3.76113
H           6.56134         0.78445        -3.63471
H           6.80130         3.70745        -1.66811
H           5.46550         3.33498        -0.66287
H           5.18200         6.39720        -1.23218
H           3.60261         4.09096         0.06142
H           3.53153         5.75852         0.64467
H           5.05045         4.86662         0.63671
H           3.37727         5.90976        -3.20665
H           3.21131         7.22538        -2.05231
H           1.05859         6.07519        -2.20584
H           1.71894         5.67691        -0.64471
H           2.83549         3.68953        -1.74075
H           1.92039         3.96331        -3.20630
H           0.42420         1.51225        -1.21445
H           1.37091         2.30870         0.05320
H           2.20694         1.03730        -2.57809

