%chk=COC1qCrCNCCCCCqCrC1.chk
%NProcShared=20
# opt freq b3lyp/6-31g(2df,p)

Title Card Required 

0  1
C           0.62975         0.15601         0.02071
O           2.01892         0.35194         0.13382
C           2.72036         1.25942        -0.72213
C           1.84657         2.49582        -0.99740
C           3.97973         1.68160         0.12251
N           5.05111         0.67420         0.33041
C           4.62815        -0.55513         1.01360
C           5.04093        -1.82406         0.25049
C           4.59643        -1.93117        -1.21216
C           3.08254        -1.84959        -1.42856
C           2.65971        -0.75777        -2.43237
C           3.09523        -1.16730        -3.84462
C           3.17448         0.65262        -2.08812
H           0.39778        -0.78106         0.53648
H           0.29325         0.07245        -1.01188
H           0.10339         0.96152         0.53505
H           1.45614         2.91724        -0.06609
H           0.97814         2.21752        -1.60817
H           2.38918         3.27476        -1.54131
H           3.64866         2.03261         1.10845
H           4.45939         2.53919        -0.36971
H           5.78006         1.10727         0.88919
H           3.57345        -0.59997         1.26854
H           5.12088        -0.58377         1.99497
H           4.65537        -2.69507         0.79538
H           6.13399        -1.90565         0.27146
H           4.93673        -2.89632        -1.60699
H           5.13890        -1.18327        -1.79677
H           2.56456        -1.74380        -0.47483
H           2.71954        -2.81586        -1.80262
H           1.56672        -0.71569        -2.46585
H           4.17938        -1.29348        -3.91773
H           2.78879        -0.42235        -4.58529
H           2.62603        -2.11936        -4.11715
H           2.88021         1.33524        -2.89915
H           4.26938         0.67855        -2.16705

