%chk=COCC1CCCCCCN1CCqOrO.chk
%NProcShared=20
# opt freq b3lyp/6-31g(2df,p)

Title Card Required 

0  1
C           0.96716         0.02560         0.18732
O           2.39359         0.07601         0.31034
C           2.92714        -0.67373        -0.77422
C           4.42480        -0.81933        -0.96697
C           5.07372        -0.90386         0.42221
C           6.51759        -0.43151         0.49505
C           6.79966         0.77991        -0.39988
C           7.51122         0.40126        -1.70464
C           6.70824        -0.38393        -2.75575
C           6.25679        -1.79193        -2.31046
N           4.82394        -1.92291        -1.90601
C           3.99267        -2.06404        -3.15712
C           2.47340        -2.48398        -3.12670
O           1.56850        -1.46350        -2.77517
O           2.02817        -2.85084        -4.42581
H           0.51266         0.57174         1.01178
H           0.62604        -1.01677         0.22011
H           0.64908         0.47371        -0.76236
H           2.61838        -0.10978        -1.65590
H           2.53673        -1.68659        -0.66359
H           4.67423         0.12570        -1.44288
H           4.97099        -1.91720         0.83183
H           4.52548        -0.25860         1.11978
H           7.20111        -1.25745         0.28438
H           6.71877        -0.16070         1.53882
H           7.44285         1.46987         0.15674
H           5.89906         1.37303        -0.60314
H           8.41474        -0.16742        -1.45528
H           7.85327         1.33051        -2.17598
H           7.34024        -0.49238        -3.64728
H           5.86131         0.21744        -3.10723
H           6.90431        -2.16667        -1.51168
H           6.47556        -2.49623        -3.12702
H           4.45971        -2.88338        -3.72627
H           4.10226        -1.16775        -3.77614
H           2.33793        -3.33613        -2.44915
H           1.03373        -1.80074        -2.04079
H           2.40882        -3.68765        -4.65015

