%chk=COCqCCqCOrSOrOCS.chk
%NProcShared=20
# opt freq b3lyp/6-31g(2df,p)

Title Card Required 

0  1
C           1.70979        -0.78779        -0.21392
O           2.99918        -0.26236        -0.24443
C           3.07537         0.84573        -1.13710
C           2.25904         2.14231        -0.75212
C           0.66703         2.23000        -0.77724
C          -0.20892         1.68811         0.41264
O          -0.74792         0.36037         0.31677
S           0.30534         4.07336        -0.81968
O          -1.35761         4.05306        -0.91601
O           4.47770         1.12306        -1.12802
C           4.96146         1.79495        -2.26705
S           6.76495         1.71697        -2.30014
H           1.53671        -1.52347         0.56910
H           1.35094        -1.11111        -1.19488
H           1.17969         0.06280         0.10245
H           2.77683         0.50013        -2.13533
H           2.59777         2.87546        -1.50297
H           2.64087         2.52572         0.20271
H           0.31766         1.81864        -1.73083
H          -1.12736         2.26047         0.53841
H           0.34730         1.76123         1.35609
H          -0.80837         0.08421        -0.63022
H          -1.76310         4.77365        -0.36882
H           4.67384         2.84398        -2.19679
H           4.56872         1.35801        -3.18999
H           6.91715         2.04785        -1.00950

