%chk=OdC1CdCCdCCdCC2dCCdCC2dS2CdCCdCC2dC1.chk
%NProcShared=20
# opt freq b3lyp/6-31g(2df,p)

Title Card Required 

0  1
O           3.35302         0.91112         0.62373
C           4.22369         0.28523         1.30302
C           3.49230        -1.02597         1.09582
C           4.63907        -1.49704         0.71062
C           5.25962        -2.12983         1.79445
C           6.57148        -2.08888         1.77854
C           7.23693        -2.89681         2.68506
C           8.51999        -3.09650         2.47032
C           9.24166        -3.80668         3.41317
C           9.22182        -4.99804         3.96801
C          10.34735        -5.20618         4.82800
C          11.01822        -4.03252         4.99198
C          10.09009        -3.01083         4.18617
S           9.27938        -1.09391         3.95793
C          11.08979        -1.23784         2.79356
C          11.42443        -0.01694         2.42711
C          10.67812         1.04466         3.03245
C           9.29203         1.12222         3.29850
C           7.78661         0.18732         2.58202
C           6.23141         0.47916         1.92398
H           2.63116        -1.37887         1.66989
H           5.20445        -0.89148        -0.02694
H           4.65361        -2.54865         2.58239
H           7.12389        -1.45253         1.07434
H           6.71719        -3.39158         3.48264
H           9.09537        -2.36127         1.88560
H           8.44020        -5.65431         3.66325
H          10.56402        -6.22027         5.19590
H          11.99355        -4.08600         5.51054
H          11.47976        -2.16510         2.28754
H          11.90005         0.12885         1.47360
H          11.38815         1.82674         3.35924
H           9.64666         1.03205         4.54968
H           5.90205         1.07571         0.80364

