%chk=[C]1dCCdC2CdC2SCdCS1.chk
%NProcShared=20
# opt freq b3lyp/6-31g(2df,p)

Title Card Required 

0  2
C           1.71558        -0.70594         0.78882
C           2.29530         0.05786        -0.07118
C           2.91809         0.91962        -1.03347
C           4.25500         0.93805        -1.05532
C           5.41472         1.35569        -1.52348
C           5.62551         0.48279        -0.54500
S           5.16404        -0.55862         0.62237
C           5.18476        -1.64628         1.84158
C           4.03823        -2.14350         2.39894
S           2.12990        -1.86409         2.08573
H           3.14810        -0.31526         0.34959
H           2.43869         1.56458        -1.75766
H           5.73995         2.02672        -2.27567
H           6.18494        -1.94514         2.17659
H           4.24567        -2.87105         3.21449

