%chk=[C][C]c1ccccccnccc2cnc-2cccc1.chk
%NProcShared=20
# opt freq b3lyp/6-31g(2df,p)

Title Card Required 

0  2
C           2.27313        -0.64089        -0.16489
C           4.26416        -1.88244        -0.42254
C           6.22857        -2.96619        -0.78925
C           4.91725        -1.44360        -0.92002
C           5.11244        -2.24149        -2.05174
C           6.81963        -2.39616        -2.58937
C           7.32152        -3.64077        -3.27546
C           8.75757        -3.98265        -3.10789
C           8.86392        -5.26589        -3.39511
N          10.07538        -5.43579        -3.84173
C          10.63893        -6.47948        -4.18663
C          11.94841        -6.71298        -4.55632
C          12.54862        -7.76045        -4.98391
C          12.01491        -8.67979        -5.82212
N          13.15275        -9.11358        -6.13692
C          13.83566        -8.19787        -5.16352
C          13.82792        -6.98132        -3.90640
C          12.20784        -5.76934        -2.78513
C          10.35432        -4.80189        -1.97319
C           8.18420        -3.92148        -1.28626
H           5.34309        -0.57771        -0.36234
H           4.40287        -3.17864        -2.31390
H           7.30014        -1.91688        -1.39992
H           6.36854        -4.44126        -2.95415
H           9.29027        -3.25884        -2.27471
H           8.08666        -5.82358        -3.71766
H           9.97874        -7.13308        -4.51161
H          12.53219        -5.79074        -4.47111
H          10.95918        -8.78283        -6.05634
H          15.15168        -7.88197        -4.71715
H          13.83531        -6.10845        -3.23118
H          11.95628        -4.97618        -2.44247
H           6.51196        -3.85466        -1.43571

