%chk=[N][N]C1dCCdCCdCCdCCdCCdC1.chk
%NProcShared=20
# opt freq b3lyp/6-31g(2df,p)

Title Card Required 

0  2
N           1.67949         0.33590        -0.28543
N           3.52974         1.07689        -1.22881
C           4.93073         2.03479        -2.44477
C           4.81988         0.94146        -1.05843
C           5.64938         1.62751        -1.93370
C           6.88793         1.57088        -1.86142
C           7.78927         2.12950        -2.57839
C           8.94800         2.15947        -2.61018
C           9.33013         2.82040        -3.54113
C          10.76435         2.91500        -3.55344
C          10.07838         3.40049        -4.56668
C          11.13658         3.95453        -4.81048
C           8.83111         3.86676        -4.57977
C           6.83954         3.13852        -3.76379
H           5.15913         0.28537        -0.21950
H           6.03231         2.38849        -2.90991
H           7.25316         1.03505        -1.17731
H           8.05283         2.94013        -3.62045
H           9.50853         1.74916        -2.08848
H           7.78058         3.54157        -4.54593
H          11.64507         2.61287        -3.18743
H          10.27276         4.66880        -5.97354
H          12.80928         3.65696        -4.51204
H          10.62482         4.34943        -5.09290
H           5.15086         2.98945        -3.66378

