%chk=[N]S[C]dC1CdCCdCC2dCCdC2CdCdCqOrC1dO.chk
%NProcShared=20
# opt freq b3lyp/6-31g(2df,p)

Title Card Required 

0  2
N           1.40868        -0.24135         0.28228
S           3.08093        -0.24240         0.33348
C           3.60843        -1.22766         1.76260
C           4.16542        -2.10182         2.65135
C           5.24311        -3.01007         2.22043
C           6.58187        -2.70444         2.36247
C           7.36870        -3.07284         3.53628
C           8.62204        -3.08248         3.95362
C           9.19756        -3.79884         5.15957
C          10.39564        -4.07780         5.54518
C           9.90110        -4.97961         6.55789
C           8.61652        -4.71437         6.12351
C           6.97883        -4.95345         6.11163
C           5.82525        -4.42835         5.58281
C           4.75843        -3.60591         5.34891
O           4.05196        -3.78568         6.56274
C           4.60485        -2.04616         4.30477
O           5.35027        -1.05682         4.46297
H           4.75812        -3.83478         2.77387
H           7.06523        -1.81820         1.97275
H           6.65924        -3.19449         4.29343
H           9.41485        -2.68170         3.34805
H          11.33895        -3.79874         5.03603
H          10.57915        -5.51362         7.21595
H           7.26911        -4.04335         5.68861
H           4.44923        -4.59179         7.01705

