%chk=C1dCCdc2cccccc3cc-3c2dCCdC1.chk
%NProcShared=20
# opt freq b3lyp/6-31g(2df,p)

Title Card Required 

0  1
C           1.70354        -0.10913         0.13734
C           2.76506         0.06622        -0.57644
C           3.84943         0.41362        -1.38012
C           5.37092         0.42616        -1.50281
C           5.09278         0.88712        -2.75316
C           6.23108         1.06625        -3.18324
C           6.74718         1.46817        -4.31866
C           7.98259         1.38571        -4.15719
C           9.11918         1.60596        -4.76412
C           9.57882         1.18959        -3.58012
C          10.50754         0.92685        -2.78569
C           9.09626         0.58638        -1.86492
C           7.18294         0.22847        -0.91651
C           6.18494        -0.21956         0.42145
C           4.47300        -0.58307         1.36461
C           2.74535        -0.64993         1.67469
H           0.64184         0.04046        -0.38973
H           3.37200        -0.16630         0.13068
H           3.06873         0.66458        -2.14362
H           4.34795         1.12930        -3.42540
H           6.90109         0.86230        -2.45306
H           6.40701         1.77808        -5.19288
H           8.04129         0.97256        -3.20905
H           9.17750         1.98022        -5.78153
H          11.06952         1.39079        -4.09808
H           5.06321        -0.18166         0.17941
H           4.99629        -0.91637         2.28605
H           1.42992        -0.69596         1.64687

