%chk=C1dCC2dc3cccccqccqcc3rCdC2rdNNdCC1.chk
%NProcShared=20
# opt freq b3lyp/6-31g(2df,p)

Title Card Required 

0  1
C           3.31095         0.51366         1.28270
C           3.01304         1.25272         0.12215
C           3.29670         2.54498         1.26358
C           4.46657         2.35269         0.67158
C           5.56435         2.29873         1.64244
C           6.87376         2.37063         1.16041
C           7.58205         3.33327         1.75558
C           8.40725         3.78779         0.87133
C           8.99507         4.59541         1.89555
C           7.97202         5.70740         2.76905
C           6.37700         5.39180         2.40114
C           5.72208         4.38435         0.98463
C           5.40480         3.04432        -0.03380
C           4.64154         5.33014         2.82473
C           3.53775         4.17627         2.17851
N           9.71766         3.47779         2.27926
N           8.75143         1.91424         2.76257
C           7.23438         0.82363         2.31730
C           5.42029         0.33420         1.50347
H           1.95775         0.49666         0.85011
H           2.96511         0.00622        -0.38672
H           4.89047         2.77374         2.28954
H           7.34845         1.62922         0.43694
H           7.30620         4.00971         2.40604
H           8.93396         2.82933         0.51771
H           9.00049         6.24952         3.43334
H           5.74624         4.02305         2.36682
H           5.75494         1.54982        -0.17037
H           5.23254         6.33480         3.43638
H           2.43573         3.63737         2.01144
H           8.47255         1.57198         1.78165
H           4.43414        -0.55649         1.38588
H           4.98901         0.08395         0.23144

