%chk=C1dCNdCCdCNdCCdC2CdCS2dCSCdC1.chk
%NProcShared=20
# opt freq b3lyp/6-31g(2df,p)

Title Card Required 

0  1
C           3.42263         0.78338         2.27897
C           3.09337         0.29953         0.95404
N           3.54390         1.43721         0.28973
C           4.82805         1.29615         0.45434
C           5.48009         2.18472         1.43394
C           6.74238         1.93619         1.75481
N           7.36293         2.75452         2.63443
C           8.64016         2.66192         2.70599
C           9.37363         3.63016         3.47681
C          10.67084         3.54245         3.60352
C          11.78558         2.77375         3.15495
C          12.67502         3.37621         3.97249
S          11.47625         4.37169         4.81854
C          10.18494         2.97165         5.90067
S           8.00037         2.61771         5.52983
C           6.10932         1.68999         4.58250
C           4.80299         1.20072         3.64674
H           2.18123         0.98276         2.23391
H           3.08678        -0.24543        -0.09889
H           5.23232         0.25954         0.31108
H           4.84711         2.79249         2.11460
H           7.25204         1.12775         1.25930
H           9.21642         1.91358         2.17022
H           8.88828         4.30600         4.19266
H          11.81710         2.07570         2.32762
H          13.78514         3.35557         3.90289
H          11.27050         2.84139         6.62818
H           6.27162         1.58868         5.70166
H           3.85257         0.52905         3.83532

