%chk=C1dCC2dc3cc[nH]cqocc3rdCCqdC1rCdC2.chk
%NProcShared=20
# opt freq b3lyp/6-31g(2df,p)

Title Card Required 

0  1
C          -1.63676        -0.67881         0.10773
C          -0.69033        -1.60031         0.64597
C           1.31597        -1.57741         0.88812
C           2.44026        -2.76294         0.31487
C           0.65577        -3.20970         0.69156
C           1.60558        -3.99908         0.42368
N           0.75751        -4.99326        -0.02336
C           1.10609        -3.70200        -1.17837
O           1.42410        -5.55019        -0.59910
C           3.16772        -6.05448        -0.05210
C           3.75520        -4.34528         0.06317
C           0.69295        -1.72857        -1.04327
C           0.09827         0.09536        -0.38235
C          -1.33320         0.65228        -0.11317
C           1.32333         1.09422         0.03943
C           2.01776        -0.04490         0.19432
H          -2.62216        -1.02513        -0.01763
H          -1.28677        -2.54776         0.06743
H          -0.30668        -3.82410         0.06244
H           2.31961        -4.73354         0.16484
H           0.30452        -6.06319        -0.03637
H           3.06297        -7.62904        -0.02761
H           3.79739        -3.05143        -0.02752
H           0.34754        -0.46602        -0.25563
H          -2.25801         1.37040         0.04701
H           1.83046         2.07070        -0.03148
H           3.01072        -0.12397        -0.01018

