%chk=Cc1ccc2cqn1rCdCCdCCqdOrCdNNdCCdC2.chk
%NProcShared=20
# opt freq b3lyp/6-31g(2df,p)

Title Card Required 

0  1
C           0.95442         0.01291        -0.07645
C           2.43566         0.01918        -0.07745
C           3.44938         0.83626        -0.13612
C           4.94129        -0.56171         0.22961
C           5.50260        -2.75443         0.44196
C           4.39117        -1.44841         0.01716
N           3.00180        -1.18378         0.03770
C           5.01949        -2.73927        -0.27051
C           4.23072        -3.83399        -0.37641
C           4.76223        -4.98479        -0.90793
C           4.21244        -6.16811        -0.56106
C           5.42284        -6.45981        -1.17763
O           6.97014        -6.84352        -0.81589
C           4.37304        -8.13443        -0.97852
N           5.71306        -8.90702        -1.45391
N           4.23290       -10.15498        -1.10833
C           5.65608        -9.81570        -0.73561
C           5.76351        -7.49187         0.10340
C           5.85737        -5.33704         0.39539
H           0.56765         1.01688        -0.18467
H           0.57220        -0.40356         0.85985
H           0.57145        -0.59879        -0.89359
H           2.82761         2.00447        -0.60849
H           4.96765         1.20243         0.56271
H           6.05635        -3.43289        -0.70068
H           3.34728        -3.56750        -0.21067
H           6.45490        -5.08153        -0.95284
H           3.29228        -6.08713        -0.48027
H           3.40225        -8.68067        -0.78569
H           6.07563       -11.54546        -1.09390
H           5.25866        -9.28586        -0.22339
H           6.95422        -4.09324        -0.03557

