%chk=CC1dNCdCC2dCC3dCCdCqC3Nd[N]rN2CdC1.chk
%NProcShared=20
# opt freq b3lyp/6-31g(2df,p)

Title Card Required 

0  2
C           1.52526        -0.08223        -0.23030
C           3.17353         0.31665         0.15449
N           3.05312         1.13216         1.16713
C           4.30628         1.47980         1.51953
C           5.03212         2.21797         2.24985
C           6.48413         2.04179         2.11268
C           7.21729         2.31268         3.18608
C           8.64813         1.77681         3.22143
C           9.33215         2.90314         3.52154
C           9.72596         3.04002         2.09399
C           8.87899         2.16961         1.11930
C           9.47578         1.00902         1.78120
N           9.04197         0.03398         0.74666
N           9.82472        -0.24346        -0.22102
N           7.18467         1.61766         0.92387
C           6.36495         0.41160        -0.09896
C           4.89097        -0.10738        -0.45698
H           0.93701         0.55105         0.50390
H           1.06865        -1.04823         0.06309
H           1.05146         0.31541        -1.14387
H           4.98030         0.85239         1.10000
H           4.53192         2.77924         3.00967
H           6.81855         3.14058         3.80642
H           9.06987         3.78612         4.14850
H          10.86894         2.80724         2.44565
H          10.59602         1.10660         1.65632
H           7.19498        -0.17503        -0.51643
H           4.69045        -0.94902        -1.15133

