%chk=CC1dCC2dCCdCCdCCdCdCdC2CdNS1.chk
%NProcShared=20
# opt freq b3lyp/6-31g(2df,p)

Title Card Required 

0  1
C           1.10734        -0.03490        -0.00357
C           2.68749        -0.21310         0.11807
C           3.27983        -1.43299         0.14155
C           4.71152        -2.00392        -0.00735
C           4.73861        -2.80512        -1.08103
C           5.93453        -2.87350        -1.90342
C           6.43765        -3.93451        -2.43926
C           7.88659        -3.90524        -2.70647
C           8.50888        -4.88613        -2.06887
C           8.93290        -4.37901        -0.68947
C           8.20477        -3.35007        -0.03013
C           7.35055        -2.46138         0.32244
C           6.16430        -1.56371         0.49438
C           6.07906         0.03470         0.15319
N           5.17798         0.97893         0.04792
S           3.57414         1.25166         0.27256
H           0.57887        -0.99758        -0.06690
H           0.76563         0.53248        -0.89206
H           0.66606         0.49115         0.85865
H           2.52745        -2.21276         0.02130
H           3.84692        -3.19218        -1.55466
H           6.57622        -1.97465        -1.81743
H           5.93491        -4.90592        -2.31171
H           8.35238        -2.93368        -2.44548
H           8.21956        -5.92149        -2.32989
H          10.04532        -4.53013        -0.80808
H           7.02214         0.45627        -0.21681

