%chk=CC1dSqCrSCdCCdCCdCCdCCdCCdCCdC1.chk
%NProcShared=20
# opt freq b3lyp/6-31g(2df,p)

Title Card Required 

0  1
C           3.87120        -0.76909         0.49344
C           6.88455        -1.53063         1.06520
S           3.96952        -1.30669         0.91570
C           2.98134        -2.80367         0.16057
S           5.59226        -0.88554         0.55802
C           6.31945        -2.63461         1.89665
C           7.68435        -2.53441         1.81918
C           8.35093        -3.31949         2.41326
C           9.91570        -3.71106         2.70466
C          10.23694        -4.44998         3.27933
C          11.23996        -4.42575         3.20911
C          12.34806        -5.32087         3.92648
C          13.41373        -5.64180         4.15426
C          14.50900        -6.56997         4.86393
C          15.57999        -6.20100         4.32925
C          15.60258        -6.72749         5.09172
C          14.62844        -5.05796         3.80845
C          12.25934        -3.70502         2.75962
C           9.74918        -2.55779         1.86344
H           1.75297        -0.78826         0.50195
H           1.98504        -0.37452        -0.44448
H           1.98371         0.23489         0.36016
H           1.89381        -2.94210         0.28125
H           3.48626        -3.53842         0.72283
H           3.20936        -2.86987        -0.88221
H           5.64046        -2.93263         2.12198
H           8.74400        -1.14294         0.76617
H           7.90482        -3.91821         2.86755
H          11.01466        -2.49554         1.78866
H          10.01259        -5.01476         3.69724
H          12.05834        -2.88358         2.05414
H          12.12436        -6.02637         4.46273
H          14.46441        -4.17697         3.05336
H          14.13996        -7.20218         5.35070
H          16.74530        -5.21090         3.82165
H          16.46408        -7.96680         5.97992
H          16.64466        -5.91715         4.45297
H          13.81274        -4.70996         3.47198
H           8.25429        -1.73684         1.22541

