%chk=CC1dCdCdCCdCCdNCdCSSSC1.chk
%NProcShared=20
# opt freq b3lyp/6-31g(2df,p)

Title Card Required 

0  1
C           1.26512        -0.01337        -0.68296
C           2.18050        -0.60487        -2.11185
C           3.15546        -1.40774        -1.65039
C           4.17820        -1.77279        -2.02492
C           4.90790        -1.88034        -3.13300
C           4.15612        -2.19825        -4.32864
C           4.80255        -2.51545        -5.43646
C           4.06244        -3.03900        -6.56940
N           4.77845        -3.54542        -7.51902
C           4.03078        -3.93091        -8.57972
C           4.50698        -3.77711        -9.81208
S           3.38380        -2.47061       -10.33963
S           3.55826        -0.84415        -8.39281
S           2.73027        -0.22488        -6.01755
C           2.93406         0.15862        -3.67187
H           0.30865        -0.33996        -1.04420
H           1.05387         1.03615        -0.34833
H           1.18636        -0.58362         0.31984
H           5.92668        -1.53376        -3.20668
H           3.05730        -2.10141        -4.38452
H           5.86454        -2.40148        -5.52608
H           2.94008        -2.93537        -6.58384
H           2.94828        -3.70623        -8.51134
H           5.57318        -3.84183       -10.11530
H           3.00035         1.17328        -3.27226
H           4.00522         0.11200        -3.40550

