%chk=Cc1dc-cdc-c2ccqc2r-ndc-cdc-cdn-c2cnccc2-1.chk
%NProcShared=20
# opt freq b3lyp/6-31g(2df,p)

Title Card Required 

0  2
C           5.24577         3.05744        -0.70803
C           7.90089         4.74879        -0.83626
C           6.26966         3.23794        -0.63343
C           5.11762         1.23340         0.11679
C           5.72304         2.13598         0.58257
C           7.18058         2.21907         0.56928
C           7.60846         3.63594         0.18750
C           8.96886         3.63594         0.18750
C           7.52866         1.14727         0.01701
N           9.70386         4.90602         0.27451
C          10.91662         4.73424         0.45393
C          11.87712         6.05973         0.96191
C          13.09319         5.90481         0.71193
C          13.96001         7.10450         1.06342
N          14.79975         7.32622         0.43001
C          12.64966         7.54099         0.04507
C          14.37840         8.97432         0.86927
N          15.72390        10.53569         1.16513
C          14.79172         9.41988        -0.12987
C          12.80993         7.83124        -0.48711
C          10.45798         6.25615        -0.59976
H           3.69136         1.61591        -0.46153
H           3.44819         1.92354        -0.75175
H           3.50883         1.96427        -0.16340
H           7.00492         4.58837         0.44282
H           7.55551         0.10574        -0.06194
H          14.87173         9.53835         2.23155
H          16.27887        10.85914         0.17153
H          14.70743         8.47396        -0.56112

