%chk=CC1dNC2dCdCSC2dC1C1dCSCSN[SH]1N.chk
%NProcShared=20
# opt freq b3lyp/6-31g(2df,p)

Title Card Required 

0  1
C           1.19775         0.24765        -0.04218
C           2.71653         0.19285        -0.02394
N           3.25153        -0.98465        -0.04114
C           4.54518        -0.55285        -0.03625
C           5.63082        -1.37263        -0.04068
C           6.71647        -2.19241        -0.04510
S           6.97126         0.02543        -0.04761
C           4.99982         0.64912        -0.01796
C           3.79408         1.34329         0.01029
C           3.25172         2.66912         0.04275
C           2.43305         3.07189         1.04309
S           1.84508         4.62663         1.54326
C           1.57621         5.61269         0.07752
S           3.06024         6.31996        -0.67812
N           4.11949         5.06431        -0.76949
S           3.53643         3.61560        -1.35148
N           2.22414         3.72460        -2.38783
H           0.80052        -0.78490        -0.05638
H           0.81220         0.73019        -0.94161
H           0.78174         0.70078         0.85866
H           7.48353        -2.94258        -0.04613
H           2.14788         2.32690         1.78858
H           0.93760         6.46705         0.32530
H           0.97487         5.02851        -0.61098
H           4.54937         4.89153         0.14423
H           4.48648         2.92752        -2.00760
H           1.52408         4.43583        -2.22030
H           1.75507         2.85591        -2.62794

