%chk=CC1dCdNC2dNCdC3C2dNN3C1C1d[SH]C1.chk
%NProcShared=20
# opt freq b3lyp/6-31g(2df,p)

Title Card Required 

0  1
C           1.13074         0.36381        -0.14594
C           2.65300         0.62721        -0.26333
C           3.05540         1.82894        -0.29464
N           3.46675         2.88527        -0.73103
C           3.73214         2.67811        -2.06550
N           2.77295         2.51984        -2.94855
C           3.31907         1.62736        -3.83618
C           4.33958         0.92669        -3.27404
C           5.08119         2.06796        -2.47621
N           5.70970         1.04874        -1.96999
N           4.57149         0.16009        -2.16911
C           3.64746        -0.43818        -0.72560
C           2.71252        -1.82412        -0.40089
S           2.83103        -3.29233         0.72733
C           1.47295        -2.14655         0.54668
H           0.54539         1.23677        -0.41484
H           0.82973         0.16200         0.89437
H           0.72148        -0.42632        -0.79842
H           2.98299         1.57353        -4.87721
H           4.52669        -0.59917        -0.07941
H           2.96359        -3.22908         2.06834
H           1.04942        -1.68794         1.48477
H           0.50348        -2.38697         0.06398

