%chk=CC1NNCdCCdCCdCCqNrd[SH]SSC1dS.chk
%NProcShared=20
# opt freq b3lyp/6-31g(2df,p)

Title Card Required 

0  1
C           2.08477         0.21236        -0.66060
C           3.93187         0.68492        -1.10499
N           3.48393         1.91958        -0.54887
N           4.52666         1.98786         0.25932
C           5.16401         2.99172        -0.32562
C           6.46390         2.98740        -0.25295
C           7.10122         4.09245        -0.81223
C           8.40595         4.16730        -0.61753
C           9.06077         5.35257        -1.04523
C          10.35492         5.48075        -0.78793
C          11.14847         6.38837        -1.60924
N          10.68951         7.53568        -2.20389
S          12.09191         5.01864        -2.31169
S          10.06953         3.61927        -3.11698
S           7.94613         2.01789        -2.47825
C           5.79761         1.22972        -2.10129
S           6.17973        -0.53478        -1.77323
H           1.52968         0.79529         0.26934
H           1.69517        -0.75616        -0.11037
H           1.23973         0.37003        -1.35815
H           4.08551        -0.01634        -0.18733
H           2.69262         1.95138         0.10228
H           5.13435         1.10958         0.37609
H           4.56319         3.60700        -1.02943
H           6.97432         2.07259         0.07901
H           6.55710         4.78562        -1.44463
H           8.95415         3.23645        -0.35499
H           8.59498         5.97738        -1.79936
H          10.86069         4.49051        -0.59375
H           9.68429         7.63764        -2.33067
H          11.22347         8.29279        -2.64119
H          13.31780         5.41127        -2.91576

