%chk=CC[C]dCdCSS[S]qCSrC[SH]dO.chk
%NProcShared=20
# opt freq b3lyp/6-31g(2df,p)

Title Card Required 

0  1
C           0.94672        -0.03446         0.09380
C           2.45595        -0.04802        -0.00399
C           3.30536         0.11469         1.18051
C           4.38867         0.17621         1.71717
C           5.66817         0.18851         1.97570
S           6.73273        -0.45627         0.74967
S           8.69387        -0.06771         1.36210
S           9.91217        -1.03056        -0.01323
C           9.85506         0.03208        -1.49348
S           8.26242        -0.03577        -2.36438
C          11.65633        -0.69837         0.50972
S          12.90040        -1.41698        -0.65125
O          14.27704        -1.08326        -0.15379
H           0.54298        -0.17747        -0.92058
H           0.55320         0.91726         0.46071
H           0.55328        -0.84773         0.70949
H           2.75288         0.74340        -0.69997
H           2.75142        -1.00032        -0.45686
H           6.04587         0.62492         2.88978
H          10.59229        -0.33418        -2.21420
H          10.10170         1.07090        -1.25645
H           8.10432        -1.37052        -2.36030
H          11.82516        -1.23546         1.45068
H          11.87962         0.36172         0.67197
H          12.83455        -0.57970        -1.66381

