%chk=CCCC1dCc2ccccc2OC2dC1CdCd[SH]2.chk
%NProcShared=20
# opt freq b3lyp/6-31g(2df,p)

Title Card Required 

0  1
C           0.92807         0.10207         0.10049
C           2.43978         0.16731         0.04747
C           2.92497         0.01510        -1.39732
C           4.43430         0.08480        -1.44583
C           5.02026        -1.10054        -1.14722
C           6.40704        -1.51354        -1.02203
C           6.63276        -2.88019        -0.67847
C           7.91512        -3.41054        -0.53847
C           9.00090        -2.57840        -0.74261
C           8.78860        -1.23136        -1.06916
C           7.49867        -0.67872        -1.20479
O           7.49841         0.65747        -1.50446
C           6.47413         1.48021        -1.76345
C           5.08127         1.34452        -1.75403
C           4.44142         2.62842        -2.05619
C           5.35798         3.63003        -2.24274
S           6.93260         3.06675        -2.30340
H           0.57414         0.28409         1.11842
H           0.57140        -0.88331        -0.21810
H           0.49617         0.85692        -0.56200
H           2.84867        -0.63189         0.68353
H           2.79316         1.11535         0.46590
H           2.43667         0.71257        -2.08324
H           2.59787        -0.97918        -1.74886
H           4.34292        -1.92419        -0.92993
H           5.79800        -3.56208        -0.51247
H           8.06170        -4.45796        -0.27786
H          10.00982        -2.97208        -0.64703
H           9.65681        -0.59607        -1.22523
H           3.38636         2.87748        -2.10745
H           7.22970         3.49555        -1.09609

