%chk=CCdC1CdCCdCCdCSC2dC1Cd[SH]CdC2.chk
%NProcShared=20
# opt freq b3lyp/6-31g(2df,p)

Title Card Required 

0  1
C           2.60270         0.60126         0.81708
C           4.62273         1.41503         1.78628
C           6.26255         1.92365         2.97852
C           5.52578         0.80663         1.58556
C           5.84196         0.09383         2.65914
C           7.22408         0.18359         2.19479
C           7.87846         0.54049         3.27530
C           9.23862         0.75593         3.19164
C           9.93182         0.79376         4.29737
S          11.58697         1.24022         4.18346
C          10.15039         1.89465         5.34196
C           8.30664         2.30698         4.41034
C           9.75994         2.93536         5.83685
S          11.60934         2.77744         7.67227
C          12.80034         1.15868         7.90934
C          11.75975         1.15236         6.41791
H           1.58837         0.04806        -0.41429
H           1.14170         1.06071         0.34993
H           1.29324        -0.39592         0.80692
H           3.97156         0.50943         0.54732
H           5.42963         0.16066         0.30714
H           4.85962         0.74895         3.31942
H           7.51803         0.37481         1.15139
H           7.15035         1.00811         4.25157
H           9.68135         0.75143         2.28205
H           9.04255         0.87256         5.41074
H          10.92125         3.76236         6.58747
H          12.00183         2.77119         9.42477
H          13.30610         0.39049         8.78481
H          12.52181        -0.08677         6.53197

