%chk=CCNdC1CdCCdCqSrNOCCdCSCdCS1.chk
%NProcShared=20
# opt freq b3lyp/6-31g(2df,p)

Title Card Required 

0  1
C           1.56173         0.31898         0.30104
C           3.71835         0.88488         0.70733
N           5.59674         2.08734         1.58365
C           7.34430         3.09928         2.18560
C           5.32227         2.92085         2.14822
C           6.72631         2.86876         2.40564
C           6.57320         4.30630         3.23017
C           7.86116         4.41047         3.30386
S           9.32514         2.79662         2.12053
N           8.24480         5.54293         4.12911
O           9.66868         5.97200         4.44406
C           9.18347         6.88079         5.10994
C          10.41928         6.67105         4.95626
C          11.33515         7.59119         5.63056
S          13.67900         6.71510         4.98852
C          12.47318         7.67167         5.68950
C          11.85857         6.11236         4.54503
S           9.80735         4.50132         3.35398
H           0.75899        -0.73413        -0.47060
H           0.69406         0.99256        -0.29823
H           0.69407        -0.04971         1.12403
H           3.12518         0.34576        -0.71079
H           3.12527        -0.63728         0.63153
H           4.17026         3.23157         2.43170
H           7.04105         1.78228         1.37549
H           5.69256         4.64820         3.47420
H           8.56415         1.98827         1.52507
H           7.52331         6.02317         4.48148
H           9.47690         6.36279         5.97691
H           9.47690         7.55150         4.35485
H          11.07581         5.34244         3.98270
H          11.11652         8.58505         6.35888
H          12.93681         8.99042         6.65583
H          12.61984         7.47327         5.54386

