%chk=CCSSC1dCCdCdC1[C][O].chk
%NProcShared=20
# opt freq b3lyp/6-31g(2df,p)

Title Card Required 

0  2
C           1.01485        -0.12577        -0.08038
C           2.53505        -0.21785        -0.08595
S           3.15918         1.44752         0.01866
S           5.18434         1.36095         0.01207
C           5.79506         3.10903         0.14394
C           7.36427         3.09010         0.13989
C           7.84160         4.33727         0.28832
C           8.99732         5.26931         0.25965
C           4.82793         4.49591         0.21088
C           3.33352         4.21871         0.19340
O           2.00624         4.57252         0.21587
H           0.58378        -1.12780        -0.14364
H           0.63655         0.45379        -0.93224
H           0.63636         0.34226         0.83740
H           2.88347        -0.67550        -1.01347
H           2.88353        -0.78827         0.77673
H           7.94315         2.18908         0.03264
H           7.02155         5.09620         0.37782

