%chk=Cdc1cccc2c1dC[SH]1NdCCdCC1dC2.chk
%NProcShared=20
# opt freq b3lyp/6-31g(2df,p)

Title Card Required 

0  1
C           0.88280        -0.21206         0.04061
C           2.22291        -0.10924         0.04012
C           3.01876        -1.33077         0.05214
C           4.35478        -1.25987         0.08484
C           5.07363         0.01873         0.08949
C           4.44511         1.22980         0.04796
C           2.94407         1.18487         0.02751
C           2.22384         2.32878        -0.01782
S           3.01109         3.79420         0.11455
N           2.34918         4.64963        -1.08479
C           2.98726         5.77349        -1.18942
C           4.33595         5.76401        -1.83957
C           5.14517         4.85896        -1.20804
C           4.61566         3.65888        -0.49295
C           5.22741         2.48699        -0.19370
H           0.36489        -1.16301         0.04074
H           0.22230         0.64889         0.03806
H           2.50184        -2.28750         0.02441
H           4.93703        -2.17998         0.06246
H           6.15524        -0.07358         0.04548
H           1.15557         2.37696        -0.05362
H           2.86830         4.40186         1.30415
H           2.95912         6.47758        -0.33943
H           4.04403         5.68131        -2.89543
H           5.84953         5.36028        -0.53539
H           6.30223         2.37359        -0.30586

