%chk=CdC1NdCNdCCdCCdCCdNNdCC1C.chk
%NProcShared=20
# opt freq b3lyp/6-31g(2df,p)

Title Card Required 

0  1
C           2.39964        -0.22141         0.25329
C           4.38384        -0.44277         0.52402
N           3.33775        -1.03814         1.25215
C           4.56674        -1.09766         1.32495
N           5.16699        -1.78764         2.16880
C           6.34638        -1.94101         2.35637
C           6.99468        -2.61431         3.17981
C           8.18606        -2.57645         3.13351
C           8.73745        -3.35673         4.08779
C           9.90391        -3.30207         4.02094
C          11.23041        -4.19738         5.11592
N          12.25793        -3.78726         4.61433
N          11.04026        -2.65334         3.22756
C           9.24476        -1.78226         2.16222
C           6.90857        -0.84446         1.01529
C           4.91128         0.23139        -0.30048
H           0.86134        -0.58663         0.69997
H           0.98683         0.37634        -0.47775
H           5.62640        -0.63963         0.76478
H           7.23835        -1.69655         2.05739
H           6.67732        -3.15301         3.83865
H           8.25143        -1.45526         1.76229
H           8.78943        -3.98243         4.85303
H          10.40679        -2.06970         2.51375
H          10.94732        -4.81585         5.87230
H          10.71405        -2.66872         3.24635
H           6.22399         0.11048        -0.15260
H           3.25456         0.67196        -0.83929
H           3.70624         0.62896        -1.54988
H           3.70624         1.37693        -0.93830

