%chk=CdC1CdCqCrCdCqCrNd[SH]CdCN1.chk
%NProcShared=20
# opt freq b3lyp/6-31g(2df,p)

Title Card Required 

0  1
C           2.39726        -0.22882        -0.23782
C           4.09893        -0.78905        -0.72957
C           3.05939        -1.64967        -0.30891
C           4.31919        -1.44994         0.15401
C           5.27086         0.38650         0.23390
C           4.87819        -2.99550        -0.30679
C           6.22294        -3.00309         0.01726
C           7.39266        -1.24160         0.03255
N           6.91201        -4.19619        -0.21771
S           8.17150        -3.35455         0.35571
C           8.30181        -4.20254        -1.19473
C           7.64716        -2.67131        -1.45088
N           5.79944        -1.50649        -1.26297
H           1.14879        -0.80710        -0.21140
H           1.37324         0.68218         0.03322
H           2.52126        -2.52736        -0.52156
H           4.71372         1.31084         0.17069
H           5.89538         0.58502        -0.97020
H           5.91751         0.14883         1.05268
H           4.39872        -3.87967        -0.73032
H           7.19784        -0.15646        -0.06401
H           8.05751        -0.89236        -1.14126
H           8.09492        -1.18674         0.82184
H           9.42988        -3.38535         0.59909
H           8.63480        -5.58958        -0.99842
H           8.86697        -3.60986        -1.30999
H           5.79645        -0.76761        -0.64659

