%chk=CdC1[C]dCNdCCdCCdCCdCCdC1.chk
%NProcShared=20
# opt freq b3lyp/6-31g(2df,p)

Title Card Required 

0  2
C           2.96210         0.36169         0.50094
C           4.92591         0.94545         1.17861
C           3.28399         1.04094         1.28946
C           4.64474         0.98120         1.22012
N           4.94128         2.01618         2.42159
C           6.08503         1.82318         2.19754
C           6.68865         2.70477         3.22094
C           7.84982         2.54645         3.03716
C           9.02723         3.35199         3.97228
C          10.82156         2.69896         3.21420
C          10.67391         4.11874         4.86238
C          11.03834         3.22440         3.82416
C           9.31544         2.25323         2.69677
C           7.33666         1.50449         1.82759
H           1.21248         0.50249         0.66439
H           1.47835        -0.29103        -0.25678
H           6.00473         0.61887         0.79949
H           7.50157         0.82054         1.03360
H           6.74889         3.30473         3.91741
H           8.79341         1.49948         1.82177
H           8.86482         4.04968         4.78221
H          11.84471         2.44355         2.91771
H          11.13490         4.78220         5.63257
H          12.70163         3.51863         4.16573
H          10.21657         3.32394         3.93972
H           6.92928         0.31673         0.44876

