%chk=Cdc1cccccc2cq[SH]dSrcc1dCCdN2.chk
%NProcShared=20
# opt freq b3lyp/6-31g(2df,p)

Title Card Required 

0  1
C           3.41270         0.04241        -0.01590
C           5.23613         0.00744         0.17783
C           3.72524        -0.21786         1.19329
C           4.81352        -0.34015         1.76015
C           5.02540        -0.59311         2.96524
C           6.21538        -0.65752         3.21401
C           7.18923        -0.84679         3.95678
C           8.49701        -0.74585         3.28237
C           9.32542        -0.84254         4.39766
S           8.77643        -1.33191         6.33820
S           6.81798        -1.38803         6.70196
C           8.55311        -0.47382         2.84723
C           7.31078        -0.17110         1.04355
C           8.56473         0.09492        -0.19267
C           9.10913        -0.26239         0.88744
N           9.86415        -0.43726         1.84092
H           1.99783        -0.09048         0.59531
H           2.04223         0.15460        -0.55314
H           2.87097        -0.41186         2.10139
H           5.76672        -0.30279         1.56533
H           4.47018        -0.75715         3.71239
H           6.81540        -0.49969         2.48409
H           6.77968        -0.98244         4.78471
H           9.07641        -0.42691         7.30912
H          10.11161        -0.66074         3.38704
H          10.09246         0.05971        -0.05618
H           8.56561        -0.16624         1.53709

