%chk=Cdc1cc2cqc3c1dCCdCCdCCd3rdCCdC2.chk
%NProcShared=20
# opt freq b3lyp/6-31g(2df,p)

Title Card Required 

0  1
C           1.22935        -0.60476         0.08799
C           2.47979        -1.40862         0.16553
C           3.04610         0.46629         0.10096
C           4.34538         0.77036         0.07773
C           4.75968        -0.50885         0.12766
C           4.35953        -1.93949         0.11806
C           3.21203        -3.36359         0.58924
C           3.65480        -5.17486         0.74023
C           4.84836        -6.80222         0.27477
C           4.50363        -5.67611        -0.19867
C           5.69051        -4.89286        -0.04295
C           4.90918        -3.90846        -0.33311
C           5.37850        -2.68126         0.03796
C           5.92808        -0.00555         0.10790
C           7.16052         0.25354         0.04724
C           5.79606         1.43521         0.04229
H           0.73802         0.60564         0.06021
H           0.32916        -1.11236         0.07673
H           2.50697         1.65314         0.06972
H           3.75138        -6.90151         0.35997
H           6.07269        -7.18367         0.11472
H           2.92037        -6.17937        -0.18498
H           6.73644        -4.88192         0.11406
H           3.45600        -4.30012        -0.70668
H           6.34557        -2.36221         0.07832
H           7.19208         0.83621         0.12724
H           7.47459        -1.11102         0.07234
H           5.54595         2.65454         0.04630

