%chk=Cdc1c[c]c2cqc1rNNdNCdCCdCCdCCd2.chk
%NProcShared=20
# opt freq b3lyp/6-31g(2df,p)

Title Card Required 

0  2
C           1.00906         0.04239        -0.10217
C           2.34681        -0.17384         0.00844
C           3.69697         0.41421         0.31007
C           4.68809        -0.94669         0.77274
C           5.06649        -2.88686         1.04057
C           4.12020        -1.90704         0.11517
C           2.79526        -1.51618        -0.13073
N           4.82872        -2.69561        -0.71767
N           3.83356        -3.72844        -0.56452
N           4.36053        -4.61864        -1.10814
C           3.83775        -5.79620        -0.93236
C           4.71100        -6.65699        -1.45247
C           4.11878        -7.99381        -1.65630
C           5.22228        -8.75232        -1.43303
C           4.54611        -8.44221         0.04158
C           5.00938        -6.82924         0.76165
C           5.18296        -4.80072         1.02003
H           0.41544         0.95420        -0.06350
H           0.39537        -0.88341        -0.11040
H           3.07916         1.62512        -0.21855
H           2.23259        -2.28321        -0.46079
H           6.04363        -2.63197        -0.41333
H           2.80151        -5.99826        -0.83035
H           5.92943        -6.57274        -0.98212
H           2.99126        -8.32146        -1.35510
H           6.05788        -9.41128        -0.98543
H           3.92773        -9.62528        -0.70517
H           5.51193        -8.21514         0.64166
H           6.20314        -4.04109         1.22088

