%chk=CdC1C2dCCdC[SH]dCSCC1d[SH]2.chk
%NProcShared=20
# opt freq b3lyp/6-31g(2df,p)

Title Card Required 

0  1
C           1.10040         0.20015         0.94655
C           2.51753         0.30343         0.95534
C           3.87037         1.24152         0.74134
C           4.08700         2.53951         0.45338
C           2.89789         3.28840         0.79872
C           2.53027         4.49282         0.76596
S           0.66250         4.36104         0.56697
C           1.26960         4.33887        -1.31810
S           1.17808         2.35224        -1.59411
C           2.31358         0.50525        -1.51547
C           3.04149        -0.02380        -0.35520
S           4.68812        -0.17579         0.14851
H           0.42035         0.86628         0.36053
H           0.66433        -0.75596         0.51043
H           4.91743         2.96691        -0.12044
H           2.08431         2.56050         0.90665
H           3.21380         5.22185         0.26091
H           0.21189         5.48116         1.09518
H           1.68593         5.45904        -1.04685
H           2.25242        -0.12942        -2.39214
H           1.57544        -0.24115        -1.14111
H           5.26061         0.10737        -1.00126

