%chk=CdC[C]CCdCNdCCCdCNdO.chk
%NProcShared=20
# opt freq b3lyp/6-31g(2df,p)

Title Card Required 

0  1
C           1.01811        -0.03247        -0.03705
C           2.34769        -0.09288         0.08000
C           3.34948         0.36387        -0.80509
C           4.80682         0.42170        -0.91716
C           5.46394         1.03401        -2.10369
C           6.80960         1.06822        -2.16998
N           7.48713         1.61443        -3.22844
C           8.78364         1.58800        -3.17721
C           9.60102         2.17839        -4.32128
C          11.08553         2.06665        -4.10474
C          11.99901         2.51932        -4.98194
N          13.30313         2.39312        -4.73739
O          14.03052         2.85151        -5.62566
H           0.42734        -0.45109         0.77415
H           0.50021         0.40131        -0.87765
H           2.75720        -0.55386         0.97330
H           5.14178        -0.61868        -0.82842
H           5.14178         0.95217        -0.01779
H           4.86975         1.44972        -2.90926
H           7.38126         0.64103        -1.34218
H           9.33975         1.14918        -2.32687
H           9.31554         3.23162        -4.42100
H           9.31554         1.64943        -5.23749
H          11.43866         1.59480        -3.19039
H          11.68853         2.99785        -5.90925

