%chk=CdCC1dS2CqdCC2d[SH]CrSCdC1.chk
%NProcShared=20
# opt freq b3lyp/6-31g(2df,p)

Title Card Required 

0  1
C           0.99944        -0.08701         0.07886
C           2.33364        -0.19297         0.08144
C           3.09878         0.21967         1.27511
S           4.07157         1.67277         1.01182
C           4.83295         1.59377         2.56334
C           5.92706         2.19959         2.07710
C           5.79460         1.42326         0.76997
S           7.20574         1.79701        -0.22547
C           7.71317         0.39079        -1.20421
S           4.39991         1.16243         4.15461
C           3.25359        -0.05875         3.78667
C           2.74442        -0.38409         2.59066
H           0.44501        -0.20803        -0.84657
H           0.43702         0.20364         0.96079
H           2.88425        -0.32964        -0.84321
H           6.76980         2.70088         2.52818
H           8.05041         1.56176         0.75921
H           7.10352         0.26351        -2.09914
H           7.83973        -0.54561        -0.65683
H           8.71765         0.67898        -1.55310
H           2.90034        -0.59699         4.66294
H           1.96512        -1.14349         2.58274

