%chk=CdCCdC[SH]dSqCdSdCrCSSCdS.chk
%NProcShared=20
# opt freq b3lyp/6-31g(2df,p)

Title Card Required 

0  1
C           1.01914        -0.05261        -0.06449
C           2.36120        -0.01114        -0.10177
C           3.11959         0.53504        -1.21469
C           4.46569         0.57718        -1.21315
S           5.36252         1.10565        -2.69229
S           7.14410         1.11844        -2.10911
C           7.60669        -0.63447        -2.14197
S           7.02114        -1.49068        -0.73963
C           7.58906        -3.09847        -1.01972
C           8.10741         1.66594        -3.60449
S           9.93491         1.56508        -3.31197
S          10.78321         2.39696        -5.00810
C          12.52782         2.25708        -4.71110
S          13.66663         2.80750        -5.81592
H           0.50162        -0.49032         0.78479
H           0.40507         0.33945        -0.86626
H           2.90971        -0.43632         0.73751
H           2.55203         0.88379        -2.07147
H           4.98270         0.23080        -0.32578
H           5.08443         2.39287        -2.65976
H           8.26601        -1.09022        -2.89646
H           7.25083        -3.89153        -0.33312
H           8.28039        -3.36529        -1.82841
H           7.84737         2.71775        -3.77138
H           7.82176         1.07577        -4.48126
H          12.85325         1.78967        -3.76701

