%chk=CdCC1dCqSrNNdNCdCC1dS.chk
%NProcShared=20
# opt freq b3lyp/6-31g(2df,p)

Title Card Required 

0  1
C           1.27173        -0.17204        -0.21363
C           2.61252        -0.32485        -0.40701
C           3.94050        -0.98286        -1.23973
C           5.05292        -0.51239        -0.64439
S           5.51841         0.50212         0.63947
N           6.12388        -0.94838        -1.19598
N           7.40151        -0.88678        -1.11845
N           7.29413        -1.61308        -2.03656
C           7.64737        -2.38085        -2.99757
C           6.27090        -2.63897        -3.34111
C           4.45745        -2.13445        -2.69649
S           2.90951        -2.61241        -3.30181
H           0.81918         0.47584         0.60624
H           0.47669        -0.61834        -0.77842
H           2.97010         0.32613         0.41678
H           4.40256         0.90944         1.15494
H           5.89125        -1.53474        -1.93817
H           8.69038        -2.11104        -2.67362
H           6.64446        -3.30591        -4.17976

