%chk=CdCc1ccccc2ccc3c-2c2cc-3c1-2.chk
%NProcShared=20
# opt freq b3lyp/6-31g(2df,p)

Title Card Required 

0  1
C           2.29183         0.41943         0.43559
C           3.79407         0.82197         0.35521
C           5.43457         0.94045         1.22620
C           5.03486        -0.48118         1.35004
C           5.25344        -1.08298         2.50443
C           6.64758        -1.26389         2.64552
C           7.20311        -1.21955         3.84602
C           8.54720        -0.87891         3.97140
C           9.49134        -1.79719         4.18759
C          10.62174        -1.22804         3.49282
C          10.24237        -0.15322         2.59460
C           9.09208         0.36640         3.44909
C           8.35714         1.38040         2.69985
C           9.24233         1.85907         1.49388
C           9.00144         0.49771         1.26263
C           7.26778         1.03939         1.43697
H           1.55331         0.35492        -0.49754
H           1.40781         0.06972         1.09795
H           3.80839         0.66171        -0.74661
H           5.34480        -0.77413         0.33928
H           4.63043        -0.88185         3.37594
H           7.20470        -1.12814         1.70290
H           6.66949        -1.21045         4.76044
H           9.34616        -2.79926         4.59535
H          11.57286        -1.67140         3.96039
H          10.22227         2.47434         1.60931

