%chk=CdNC1dCqNdNrCdNSNCCdC1.chk
%NProcShared=20
# opt freq b3lyp/6-31g(2df,p)

Title Card Required 

0  1
C           1.36851         0.19397        -0.22408
N           2.75165         0.67742        -0.50854
C           4.11578         1.59642        -1.25047
C           4.84651         0.72534        -0.65458
N           5.17647        -0.29457         0.12519
N           4.38362        -0.91905         0.83661
C           5.26955         1.07179        -2.03958
N           6.52768         1.17701        -2.28641
S           6.66661         2.61086        -3.86115
N           8.23843         2.09055        -2.88178
C           8.93166         3.47770        -3.29009
C           7.51356         3.04168        -1.86268
C           5.77951         2.97520        -1.53513
H           0.68086        -0.67301         0.58856
H           0.46940         0.65565        -0.69514
H           4.96668        -1.52961         1.40980
H           4.65661         2.10501        -2.95971
H           9.07026         1.50896        -2.91830
H           9.37911         4.58709        -3.13648
H           9.36268         3.26138        -4.43536
H           9.10635         3.26416        -2.26145
H           4.26609         2.65098        -1.70025

