%chk=CN1CdCCdCCdC[SH]1S[C]COOO.chk
%NProcShared=20
# opt freq b3lyp/6-31g(2df,p)

Title Card Required 

0  1
C           1.46954        -0.04770         0.07951
N           3.11536        -0.11972        -0.41380
C           2.99290        -0.30873        -1.70837
C           4.10777        -0.38179        -2.20881
C           5.14468        -0.48790        -2.93557
C           6.25721        -0.34531        -1.95890
C           7.08681        -0.50949        -3.08347
C           6.89387        -0.31332        -1.73983
S           5.30241        -0.02781         0.21574
S           3.44903         0.23720         2.03092
C           3.02964         0.52268         3.98622
C           2.09667         0.74436         5.50458
O           2.84056         0.92823         6.76397
O           1.84251         1.09206         7.88609
O           2.55473         1.27826         9.16147
H           0.88003        -0.19006        -0.89554
H           0.98491         0.91672         0.36124
H           0.98491        -0.89131         0.62521
H           2.23105        -0.40961        -2.39934
H           4.63828        -0.26339        -1.39785
H           4.87248        -0.63821        -3.96507
H           6.95406        -0.11441        -0.37745
H           6.84426        -0.67243        -4.19950
H           8.17270        -0.32477        -1.81823
H           5.61283         0.17003         1.57084
H           1.42006        -0.11382         5.70202
H           1.42006         1.62316         5.44842
H           1.78149         1.36417         9.74989

