%chk=CN1Nc2c3cc1cccccccc-3sc2dO.chk
%NProcShared=20
# opt freq b3lyp/6-31g(2df,p)

Title Card Required 

0  1
C           4.04279        -0.40445        -0.05767
N           6.26923        -0.64412         0.08900
N           4.47600        -0.43762         0.94796
C           5.13701         0.24874         1.78094
C           6.02679        -0.76654         2.20779
C           7.54041        -1.66994         1.73282
C           8.56280        -0.88319         0.45405
C          10.84703        -0.76142         0.34971
C          12.77273        -0.11097         0.36476
C          12.96949         0.33201         1.83266
C          11.83343         0.98204         1.46913
C          10.78345         0.02858         2.22614
C           9.63738         0.62202         1.92574
C           8.62793        -0.11971         2.55302
C           7.32336         0.08473         2.04790
S           7.15149         1.49197         0.87048
C           5.49951         1.28363         0.55869
O           4.96850         1.64509        -0.50082
H           2.44541        -0.68898        -0.33617
H           2.58409         0.39832        -0.24735
H           2.48323        -0.19288         0.59193
H           3.27584        -0.02649         1.69207
H           6.48020        -1.87049         2.77224
H          12.56917        -0.99554         0.71585
H          14.05402         0.94675         0.07530
H          13.48958        -0.74010         2.34363
H          11.82532         1.15209         0.21299
H          11.12213        -1.07066         2.50793
H           9.50672         0.92850         0.67925
H           9.00404        -1.24394         2.84425

