%chk=CNc1cnc2cqc1rdCCdCCdNCdCCdCCd2.chk
%NProcShared=20
# opt freq b3lyp/6-31g(2df,p)

Title Card Required 

0  1
C           1.03724         0.07223         0.07077
N           2.49320         0.04435         0.10671
C           3.12820        -1.14002         0.34632
C           4.20735        -1.74521         1.13079
N           4.14624        -3.48974         0.81578
C           3.24135        -5.01249        -0.18119
C           3.22354        -3.52076         0.03016
C           2.71587        -2.25079        -0.17365
C           2.72510        -4.59750        -0.56397
C           1.65932        -4.62203        -1.43768
C           1.11746        -5.64259        -2.06750
C           0.14259        -5.61915        -2.72079
N          -0.43397        -6.04100        -3.59915
C          -1.02756        -6.96791        -3.98355
C           0.12999        -8.22570        -3.23022
C          -0.95542        -7.88949        -4.12128
C           0.53705        -7.64785        -2.84833
C           2.14500        -6.62450        -1.29911
H           0.65935         1.04901        -0.21194
H           0.65415        -0.17550         1.06303
H           0.64984        -0.66409        -0.63490
H           2.99320         0.88563        -0.15576
H           4.66069        -0.41346         1.73678
H           1.95416        -2.34240        -0.82324
H           3.00248        -6.03244        -0.67441
H           1.31246        -3.74635        -1.57273
H           1.44977        -7.27245        -2.06195
H          -0.23355        -4.84469        -3.02890
H          -1.79720        -6.30844        -4.52319
H          -0.38131        -9.60578        -3.92484
H          -2.25814        -7.84449        -5.18299
H          -0.76143        -8.41603        -4.06826
H           3.54397        -6.83684        -0.22573

