%chk=CSC1dc2ccccc2dNCdCCdCCdCCdC1.chk
%NProcShared=20
# opt freq b3lyp/6-31g(2df,p)

Title Card Required 

0  1
C          -0.32281        -0.21219        -0.17502
S           1.66737        -0.91045         0.92412
C           2.60008        -0.52089        -0.83430
C           4.16262        -1.23469        -1.24563
C           5.06564        -2.25881        -2.39805
C           6.43640        -2.62855        -2.40249
C           7.48860        -1.97125        -1.65467
C           7.13530        -0.89561        -0.96816
C           5.70042        -0.59058        -0.59925
N           5.71128         0.31424         0.33766
C           4.46767         0.65987         0.56995
C           3.96466         1.43776         1.47382
C           2.75841         1.78124         1.98598
C           1.89464         2.35398         2.76707
C           0.44279         1.58524         2.76938
C          -0.07207         2.76335         2.56725
C           0.39154         1.92858         0.98486
C           1.44990         0.72314        -0.02609
H          -0.51339         0.13540         0.77006
H          -0.24234        -1.20669        -0.02827
H           0.04652         0.52641        -1.17218
H           4.55012        -2.73128        -3.23087
H           6.92353        -3.41669        -3.03846
H           8.55258        -2.26115        -1.72457
H           7.87505        -0.22069        -0.51211
H           3.99456         0.20692        -0.17294
H           4.58570         1.93709         2.08965
H           2.24320         1.83361         1.12764
H           2.25677         3.12961         3.41509
H          -0.65025         0.94775         2.09597
H           0.22514         3.51906         3.61277
H          -0.88066         2.32861         1.54067
H           1.24953        -0.30122        -0.91301

