%chk=CSC1dCCdCCdCCdCCdCqSrSCS1.chk
%NProcShared=20
# opt freq b3lyp/6-31g(2df,p)

Title Card Required 

0  1
C           1.97149        -0.48868        -0.78385
S           3.95219        -1.24970        -2.31492
C           5.87885        -1.83091        -4.12170
C           5.53518        -1.28984        -2.43346
C           5.63973        -2.61681        -2.82830
C           7.05105        -2.48269        -2.54287
C           7.58933        -3.40401        -3.44986
C           8.91164        -3.56093        -3.74087
C           8.89976        -4.62068        -5.04006
C          10.19237        -4.57133        -5.07111
C           9.87232        -5.57658        -6.36867
C          11.20807        -5.66430        -6.12350
S          13.06382        -4.53143        -5.68026
S          11.56074        -5.49849        -7.90694
C          10.23724        -3.62934        -6.86995
S           7.85423        -2.57406        -5.58080
H           1.14852         0.28611         0.40512
H           0.85439        -1.17916        -0.08635
H           0.83277         0.25144        -1.12589
H           5.65584        -0.85100        -1.10473
H           4.33377        -2.85699        -3.48634
H           7.45874        -1.53320        -2.04962
H           6.59774        -3.73942        -4.40687
H           9.35912        -2.50691        -3.48914
H           8.20885        -4.70118        -6.14331
H          10.96242        -3.68574        -4.92130
H           9.80738        -5.67836        -7.61727
H          12.60138        -3.61631        -4.89597
H          11.70678        -4.08045        -7.41485
H          11.66181        -4.46727        -7.08715

