%chk=CSC1dCCdNCqdCCdOr[N]SS1.chk
%NProcShared=20
# opt freq b3lyp/6-31g(2df,p)

Title Card Required 

0  2
C           0.90242         0.00526        -0.05594
S           2.67667         0.15998        -0.20026
C           3.27862        -1.27714         0.63712
C           2.67094        -2.45804         0.41978
C           3.05339        -3.89120         0.57006
N           3.72979        -4.58235         1.42073
C           4.44432        -3.88846         2.36074
C           3.82457        -3.53247         3.50306
C           4.54453        -2.73528         4.51559
O           4.00049        -2.37239         5.55126
N           5.74210        -3.73538         2.00313
S           6.03850        -2.32857         1.06177
S           4.67202        -0.91416         1.61288
H           0.45636         0.90368        -0.48432
H           0.61113        -0.08208         0.99249
H           0.52911        -0.84969        -0.62385
H           1.69890        -2.46792        -0.06164
H           2.62688        -4.49369        -0.25569
H           2.78124        -3.73504         3.68810
H           5.58700        -2.45743         4.27689

