%chk=CSC1dCCdCCdCCdC1SCCd[SH]CNN.chk
%NProcShared=20
# opt freq b3lyp/6-31g(2df,p)

Title Card Required 

0  1
C           1.01285         0.25898         0.18173
S           2.79384         0.60076         0.07014
C           3.34458         0.41508         1.76527
C           3.52466         1.66185         2.23641
C           3.79459         2.37435         3.43455
C           3.99759         2.05421         4.70748
C           4.16549         0.81241         5.36853
C           4.19740        -0.44954         4.94550
C           3.98659        -1.14450         3.70060
C           3.61080        -0.90649         2.41398
S           3.54039        -2.51992         1.54489
C           3.09791        -2.25026        -0.14358
C           2.86409        -3.44473        -0.98086
S           2.21964        -3.01795        -2.62189
C           2.18916        -4.69136        -3.28095
N           1.79986        -4.64124        -4.68638
N           1.68415        -5.95907        -5.24643
H           0.66216         0.01822        -0.82951
H           0.47447         1.13650         0.53650
H           0.76716        -0.59157         0.82661
H           3.40549         2.45294         1.48452
H           3.75961         3.45184         3.25061
H           4.07912         2.90793         5.38288
H           4.34218         0.95672         6.43820
H           4.44454        -1.15181         5.75125
H           4.18494        -2.19936         3.94239
H           3.84723        -1.64088        -0.65334
H           2.10331        -1.82340        -0.14138
H           2.95840        -4.46136        -0.58576
H           3.28932        -2.51451        -3.19983
H           1.45316        -5.25301        -2.69594
H           3.17729        -5.14500        -3.15459
H           2.46185        -4.05619        -5.20445
H           0.95486        -6.50243        -4.77652
H           2.54999        -6.49826        -5.18765

