%chk=CSC1dCCdCCdCNdC[C]qCSr[C]1N.chk
%NProcShared=20
# opt freq b3lyp/6-31g(2df,p)

Title Card Required 

0  1
C           1.14415         0.01634         0.08851
S           3.22622        -0.56526         0.86220
C           4.20672        -1.84268         2.63342
C           4.95421        -1.07546         1.59109
C           5.80164        -1.56459         2.29729
C           6.91048        -1.83188         2.67229
C           7.32805        -2.49644         3.69492
C           8.54798        -2.73618         4.00204
N           8.18129        -3.62752         5.44023
C           9.48865        -3.71263         5.20078
C           7.46213        -3.87695         5.06123
C           9.63135        -4.25870         5.98701
S          11.46058        -5.18990         7.47179
C           5.28205        -3.10714         4.07414
N           3.42491        -2.46307         3.17114
H           0.75553         0.66954        -0.82452
H           0.67965         0.51063         0.93140
H           0.67669        -0.93728        -0.12035
H           5.40054        -0.49743         0.81270
H           5.73543        -2.04344         3.08206
H           7.54820        -1.44060         2.11285
H           6.47634        -2.95343         4.71788
H           9.41216        -2.44013         3.51072
H          10.76608        -3.35255         4.75466
H          11.15915        -3.79682         6.43380
H          11.16706        -4.78581         5.73734
H          12.29244        -5.21644         9.08499
H           1.97393        -2.06318         2.96714
H           2.44050        -2.00800         2.08010

