%chk=CSC1dCCdCCdCCdCCdCqOSrCdC1.chk
%NProcShared=20
# opt freq b3lyp/6-31g(2df,p)

Title Card Required 

0  1
C           1.25244        -0.12172         0.15876
S           3.41728        -0.66881         1.48637
C           4.74285        -1.52896         3.56675
C           4.89059        -0.84430         1.91113
C           5.53197        -1.31338         3.05097
C           6.77249        -1.36215         3.16893
C           7.48733        -1.76726         4.15144
C           8.61972        -1.86748         4.39487
C           8.78772        -2.33228         5.49685
C          10.07929        -2.44159         5.78491
C           9.27090        -2.79999         6.67546
C          10.26732        -3.08493         7.36076
O          12.23763        -2.94216         7.00339
S          12.68600        -2.30250         5.45014
C           8.06234        -2.84285         6.78822
C           6.28279        -2.28867         5.44310
H           0.66097         0.35243        -0.99150
H           0.60174         0.59216         0.74697
H           0.60174        -1.04263         0.07319
H           5.46685        -0.46748         0.99820
H           5.72285        -1.81782         4.27573
H           7.29166        -1.06263         2.44181
H           7.52377        -2.28178         5.40180
H           9.29304        -1.65503         3.87932
H           7.04851        -2.69452         6.35631
H          10.93992        -2.31153         5.47248
H           9.12301        -3.51845         8.41869
H          13.57585        -1.97257         4.64962
H           9.74551        -3.24034         7.68920
H           4.66886        -2.10986         4.99001

