%chk=CSC1dCCdCCdCCdCSCdC1C[SH]dS.chk
%NProcShared=20
# opt freq b3lyp/6-31g(2df,p)

Title Card Required 

0  1
C           1.12746        -0.11524        -0.14497
S           3.34293        -0.73433        -0.76660
C           4.52323        -2.24390        -2.28379
C           5.02469        -1.37291        -1.40737
C           5.49046        -2.25743        -2.29558
C           6.77083        -2.35588        -2.39639
C           7.32925        -3.16579        -3.21666
C           8.46258        -3.44971        -3.46059
C           7.54389        -5.14736        -5.16838
C           8.95215        -4.30610        -4.34890
S           9.77071        -5.50066        -5.55237
C           7.91092        -4.22209        -4.30143
C           5.84068        -3.55945        -3.62507
C           3.51114        -2.88414        -2.90409
S           0.92018        -3.03448        -3.06324
S          -1.59461        -2.70657        -2.75964
H           0.71379         0.66021         0.63358
H           0.67492        -1.04161         0.18241
H           0.67491         0.21569        -1.07000
H           5.58989        -0.80078        -0.83316
H           4.68943        -3.22730        -3.27119
H           7.47103        -1.91839        -1.95491
H           6.54758        -4.31921        -4.36439
H           9.37228        -3.16096        -3.20307
H           8.16613        -5.58890        -5.64033
H          10.66526        -4.32721        -4.37343
H           9.65285        -4.99029        -5.04142
H           2.24419        -1.78200        -2.51214
H           2.24196        -2.47611        -1.81671
H           0.43367        -4.26089        -2.74557

