%chk=N[C]CCdC[SH]dc1cccccc1.chk
%NProcShared=20
# opt freq b3lyp/6-31g(2df,p)

Title Card Required 

0  1
N           0.88182        -0.14403         0.10123
C           2.26628         0.07662        -0.27579
C           3.05904         0.58437        -1.39927
C           4.57537         0.56581        -1.44268
C           5.23265         1.03678        -2.55627
S           7.00932         0.99234        -2.75579
C           8.01975         1.69171        -4.21144
C           9.28249         2.09071        -3.58088
C           9.80563         3.14670        -4.33510
C          11.03756         2.99071        -5.06629
C          10.77709         2.96411        -6.41263
C           9.49436         2.08800        -6.71142
C           8.33789         1.70041        -5.91571
H           0.66289        -0.60168         0.97747
H           0.44369        -0.66772        -0.65806
H           2.68860         1.60747        -1.51136
H           2.67637        -0.00875        -2.23918
H           5.05639         0.15618        -0.55121
H           4.60597         1.45610        -3.33016
H           7.37746        -0.22903        -2.43933
H           9.76416         1.29656        -3.07892
H           9.09262         3.71510        -4.93310
H          11.69819         2.18381        -4.69170
H          10.59274         3.72632        -7.19452
H          10.36485         1.44487        -7.03299
H           7.44070         2.30427        -6.17853

