%chk=N[N+]1C2dCCdCC2dCCdNCdCCdCCdCC1OO.chk
%NProcShared=20
# opt freq b3lyp/6-31g(2df,p)

Title Card Required 

1  2
N           1.08254        -0.91199        -0.14085
N           2.75064        -1.46833        -0.32937
C           3.28407         0.27333        -0.18659
C           2.82920         1.61959         0.33951
C           3.67331         2.90764        -0.12515
C           4.55406         2.40498        -0.98176
C           4.30339         0.94421        -1.06396
C           4.99341         0.25193        -1.93567
C           4.43395        -1.03648        -2.19933
N           5.06140        -2.04242        -2.66179
C           4.23755        -3.05204        -3.02923
C           4.74174        -4.09514        -3.64924
C           3.81588        -5.14683        -3.96457
C           4.39534        -6.33170        -3.89955
C           3.78010        -6.55179        -2.47305
C           3.54338        -5.31707        -1.39574
C           3.41152        -3.27795        -0.75890
O           2.23928        -3.66993        -0.08734
O           2.66208        -3.81058         1.25311
H           1.03059         0.14916        -0.33418
H           0.90355        -0.75148         0.87366
H           2.04239         2.10526         0.95706
H           3.68729         4.01469         0.11317
H           5.32379         2.97293        -1.51230
H           5.75822         0.65654        -2.54370
H           3.35764        -1.09492        -2.08026
H           3.16024        -3.17006        -2.78046
H           5.80749        -4.13567        -3.80267
H           2.81318        -5.16946        -3.41868
H           5.43410        -6.51363        -4.30081
H           3.43310        -7.71002        -2.73257
H           4.66109        -6.00121        -1.43664
H           4.36490        -3.10518        -0.26194
H           2.12365        -4.60449         1.29197

