%chk=NC12CdCCdCCdCCdCCdCC1dCC2dS.chk
%NProcShared=20
# opt freq b3lyp/6-31g(2df,p)

Title Card Required 

0  1
N           1.42048        -0.71131         0.11124
C           2.78020        -0.29401         0.73966
C           2.58600         0.29297         1.99679
C           3.76536         0.68889         2.45981
C           4.00636         0.48065         3.79800
C           5.23996         0.73245         4.18079
C           5.45058         0.74961         5.56288
C           6.72321         0.87743         5.93024
C           6.97523        -0.15349         6.84214
C           7.24894        -1.11108         5.88944
C           6.36081        -1.58519         4.26400
C           5.56511        -1.65363         2.78840
C           4.49925        -1.12650         1.09449
C           4.48557        -0.71243        -0.41095
C           3.52544         0.51788        -0.22662
S           3.28945         2.04367        -0.84837
H           0.62463        -0.88893         0.73831
H           0.95789        -0.22011        -0.70166
H           1.71431        -0.01297         2.52803
H           4.69272         0.77182         1.83908
H           3.22449         0.06962         4.41121
H           6.10083         0.62341         3.48088
H           4.76196         0.14723         6.17614
H           7.53658         0.89299         5.15784
H           6.42426        -0.11846         7.82332
H           8.38637        -0.99517         6.16362
H           6.40712        -2.40917         5.09781
H           4.98359        -2.58989         2.69003
H           4.77189        -0.55539        -1.47078

