%chk=NC12CdNCdCSCdC1CdCCdCCdCC2dO.chk
%NProcShared=20
# opt freq b3lyp/6-31g(2df,p)

Title Card Required 

0  1
N           2.16284        -0.33987         1.21742
C           3.99015        -0.60276         1.56893
C           3.41395        -1.83510         1.12041
N           4.38067        -2.40295         0.59189
C           4.76366        -3.17640         1.60934
C           6.08311        -3.28682         1.72212
S           6.46501        -3.90127         3.26190
C           6.84519        -2.05873         3.29651
C           5.50213        -1.25847         3.01515
C           6.12371        -1.29921         4.73903
C           5.99631        -0.33656         5.68507
C           4.80138         0.03314         5.07376
C           4.88330         1.09824         4.25879
C           4.00427         1.00262         3.19822
C           3.97749         1.82151         2.15411
C           3.76104         1.01750         0.99634
O           3.08563         1.53828         0.08120
H           1.64545        -1.00882         0.51551
H           1.92635         0.38962         0.37677
H           2.46419        -2.16904         1.71380
H           4.13430        -3.14673         2.57766
H           6.67518        -2.36701         1.32350
H           7.90778        -2.63041         3.20737
H           6.15276        -2.24334         5.49887
H           6.65995         0.51051         5.89674
H           4.19912        -0.94778         4.82580
H           5.67407         1.81974         4.13117
H           3.62489        -0.03947         3.29501
H           4.31136         2.80139         1.97275

