%chk=Nc1ccccccqdSrc1dS.chk
%NProcShared=20
# opt freq b3lyp/6-31g(2df,p)

Title Card Required 

0  1
N           1.59141        -0.02466         0.11444
C           3.18322        -0.29401        -0.20429
C           3.01211        -1.12806        -1.19126
C           4.14830        -1.50897        -1.64200
C           5.06345        -2.04899        -2.28102
C           6.47679        -1.41694        -1.53310
C           7.06050        -2.21989        -2.48325
C           6.61483        -1.13657        -1.20132
S           8.75024        -1.54863        -1.68894
C           5.16564        -0.09749         0.02826
S           4.69705         1.00579         1.33381
H           0.88116        -0.54116        -0.49675
H           0.98990         0.52110         0.76026
H           2.26994        -1.58304        -1.72965
H           4.77609        -1.04970        -1.09852
H           4.71115        -2.68403        -3.03250
H           7.61618        -0.61121        -0.57964
H           6.69407        -2.90782        -3.29731

