%chk=NC1dCCdCCqdOrSCqdSrCdC1.chk
%NProcShared=20
# opt freq b3lyp/6-31g(2df,p)

Title Card Required 

0  1
N           1.67006         0.07966        -0.04183
C           3.65641         0.15041        -0.05938
C           3.18309         1.35131        -0.35800
C           4.38315         1.70158        -0.44510
C           5.06800         2.68001        -0.68837
C           6.44144         2.42537        -0.62548
O           7.11838         0.63890        -0.18202
S           7.30659         4.10083        -1.04165
C           9.06590         3.09512        -0.79147
S          10.23519         1.90931        -0.49674
C           7.71818         1.76075        -0.45903
C           5.79917         0.52906        -0.15301
H           0.62961         0.86650        -0.23745
H           0.64423        -0.74638         0.16356
H           2.47462         2.09480        -0.54286
H           5.36813         1.70771        -0.44660
H           4.61993         3.47819        -0.88682
H           8.58625         2.99773        -0.76732
H           4.78978        -0.60088         0.12750

