%chk=NC1dCSCqdSrCqCdCCCdSrdCC1.chk
%NProcShared=20
# opt freq b3lyp/6-31g(2df,p)

Title Card Required 

0  1
N           0.97768        -0.03059         0.27307
C           2.36222        -0.08485         0.16153
C           2.93980        -1.29418        -0.01172
S           4.58220        -1.71887        -0.26517
C           5.43234        -0.59216         0.75535
S           6.16537        -1.04780         2.19788
C           5.52787         0.76932         0.16896
C           6.78510         1.20967        -0.42491
C           6.93761         2.36855        -1.09101
C           8.18990         2.76756        -1.79567
C           8.04548         4.17230        -2.34936
S           9.30464         4.91089        -3.16832
C           4.43826         1.55711         0.15653
C           2.98450         1.29374         0.26043
H           0.44750        -0.85033        -0.00579
H           0.53521         0.86428         0.06859
H           2.27891        -2.15506        -0.02489
H           7.59772         0.48222        -0.42932
H           6.11158         3.06826        -1.16343
H           8.37746         2.07703        -2.62500
H           9.02482         2.74466        -1.08943
H           7.08064         4.69032        -2.20375
H           4.58861         2.61961        -0.01290
H           2.56695         1.86327        -0.58814
H           2.61677         1.78355         1.16858

