%chk=NC1dCCdCqCdOrCdCCdCSCqSrdC1.chk
%NProcShared=20
# opt freq b3lyp/6-31g(2df,p)

Title Card Required 

0  1
N           2.33633        -0.28657        -0.09118
C           4.45289        -0.68579        -0.35188
C           3.22552        -1.24228        -0.71529
C           4.58378        -1.39311        -0.81378
C           5.17154        -2.35507        -1.44197
C           4.48838        -3.26178        -2.03408
O           3.30515        -3.25179        -2.02755
C           6.75652        -2.62691        -1.61949
C           7.23330        -3.39186        -2.11902
C           8.83218        -1.83858        -1.10469
C           9.03913        -3.35915        -2.09767
S          10.80943        -3.47533        -2.17353
C           8.45527        -2.87949        -1.78443
S          10.69164        -4.23905        -2.67226
C           6.77802        -1.50290        -0.88548
H           0.88907        -0.77294        -0.40879
H           1.01067         0.45163         0.39089
H           2.57805        -1.89982        -1.14467
H           5.59301        -1.08696        -0.61386
H           5.10647        -3.95870        -2.48919
H           7.83540        -1.22238        -0.70229
H           6.94574        -4.14669        -2.61195
H           9.83415        -2.02142        -1.22409
H           9.04738        -4.66511        -2.95049
H          12.28659        -5.39550        -3.42746
H           6.02973        -0.17515        -0.01842

