%chk=NC1dCqNrSCdNC2dCC2dCSCdCCdC1.chk
%NProcShared=20
# opt freq b3lyp/6-31g(2df,p)

Title Card Required 

0  1
N           0.87877        -0.01263         0.13983
C           1.69769         0.73165        -0.67401
C           3.12738         0.98832        -0.95467
N           3.21486         1.89404        -1.94504
S           4.86820         0.55458        -0.48039
C           5.81727         1.61638        -1.64142
N           7.02601         1.94697        -2.00292
C           7.11150         2.88201        -3.02535
C           7.95534         3.50971        -3.71170
C           6.62291         3.86206        -4.09698
C           5.26829         3.89949        -4.13792
S           3.87703         4.68614        -4.99809
C           2.55411         3.87173        -4.10756
C           1.22684         3.68456        -3.90289
C           0.44019         2.65049        -2.77219
C           0.51291         1.66626        -1.69597
H          -0.10249         0.16907        -0.05885
H           1.02294        -0.68947         0.87993
H           2.43949         2.29523        -2.38373
H           3.88446         2.34679        -2.44010
H           5.23354         2.18586        -2.26413
H           9.03038         3.49050        -3.69070
H           4.80505         3.27894        -3.45937
H           3.00949         3.26430        -3.44336
H           0.57340         4.28585        -4.56038
H          -0.59211         2.87232        -3.01474
H           1.49215         1.65267        -1.68111

