%chk=NC1dCqNdSrCdCCdCCdCC1dS.chk
%NProcShared=20
# opt freq b3lyp/6-31g(2df,p)

Title Card Required 

0  1
N           1.67789        -0.05112        -0.01150
C           3.55478         0.24322        -0.26554
C           3.28183         1.20659        -1.09660
N           2.39009         1.97333        -1.75803
S           0.88239         1.95533        -1.74252
C           4.60609         1.42198        -1.28238
C           4.97273         2.31758        -2.05502
C           6.25138         2.00865        -1.78861
C           6.98908         2.74676        -2.42548
C           8.58560         2.20238        -1.95516
C           7.74101         1.23811        -1.12368
C           5.74301         0.11669        -0.15630
S           4.48163        -1.01959         0.82397
H           0.84029         0.68906        -0.65010
H           0.80434        -0.59041         0.45370
H           5.68557         1.10740        -1.01087
H           4.52106         2.98824        -2.63360
H           6.73500         0.69033        -0.65134
H           6.95929         3.48299        -3.06041
H           9.68342         1.95260        -1.74044
H           8.34073         2.37713        -2.10639

