%chk=NC1dCqCdCdOrCdCCdCSCdCCdCCdCS1.chk
%NProcShared=20
# opt freq b3lyp/6-31g(2df,p)

Title Card Required 

0  1
N           3.47963        -0.24450        -0.85447
C           5.69958        -0.42053        -1.64571
C           3.76119        -0.41058        -1.60096
C           2.42144        -0.62735        -2.57532
C           1.08514        -0.61781        -2.53242
O          -0.10308        -0.60493        -2.47453
C           5.14007        -0.37355        -1.43453
C           5.49492        -0.76759        -3.20569
C           6.70226        -0.67962        -2.81024
C           7.30856        -1.01730        -4.32808
S           9.93668        -0.90511        -3.82379
C           8.95812        -1.20301        -5.16279
C          10.68025        -0.97653        -4.14482
C          11.07257        -1.50396        -6.51554
C          12.62028        -1.26495        -5.44124
C          11.96386        -1.56271        -6.77958
C          10.41477        -1.26257        -5.43051
S           8.35508        -0.74215        -3.09131
H           1.78018        -0.24409        -0.85263
H           2.03847        -0.04899         0.02433
H           2.96086        -0.81253        -3.40766
H           5.59099        -0.08964        -0.15840
H           4.62589        -0.81579        -3.42234
H           7.59892        -0.37584        -1.44484
H           6.84685        -1.18008        -5.05976
H           9.20192        -1.43058        -6.18567
H          11.96152        -0.97832        -4.15288
H          10.85206        -1.77257        -7.72286
H          13.85864        -1.40344        -6.06370
H          12.73673        -1.92091        -8.38961
H          12.18211        -1.51235        -6.55322

