%chk=NC1dCqSCCdOrCdCCdCSCdCCdCCdCS1.chk
%NProcShared=20
# opt freq b3lyp/6-31g(2df,p)

Title Card Required 

0  1
N           3.35966         0.82564        -0.27589
C           5.57794         1.57419        -0.59225
C           3.63864         1.53311        -0.57489
S           2.20212         2.70331        -1.06946
C           0.41448         2.31467        -0.90520
C          -0.38435         3.48393        -1.39938
O          -1.61233         3.49846        -1.40552
C           5.01592         1.37863        -0.50960
C           5.36966         3.04748        -1.21492
C           6.57912         2.67373        -1.05696
C           7.18571         4.10460        -1.66169
S           9.81398         3.62910        -1.46073
C           8.83490         4.89262        -1.99474
C          10.55639         3.93179        -1.58866
C          10.94905         6.16920        -2.53427
C          12.49646         5.15517        -2.10570
C          11.84067         6.41825        -2.63952
C          10.29191         5.14516        -2.10148
S           8.23275         2.93773        -1.16853
H           1.66631         0.82750        -0.27667
H           1.91932        -0.00388         0.07470
H           0.13812         2.13312         0.13855
H           0.13812         1.43960        -1.50239
H           0.17169         4.34477        -1.76320
H           5.46643         0.17066         0.00093
H           4.49584         3.24959        -1.30034
H           7.47518         1.38427        -0.51198
H           6.72273         4.79462        -1.95332
H           9.07835         5.85747        -2.40252
H          11.83789         3.93932        -1.59184
H          10.72838         7.30803        -3.01558
H          13.73494         5.74241        -2.35389
H          12.61319         7.93748        -3.28160
H          12.05880         6.20468        -2.54926

