%chk=NC1dCdCCdNCdCCdNCdCSC1CS.chk
%NProcShared=20
# opt freq b3lyp/6-31g(2df,p)

Title Card Required 

0  1
N           1.43787         0.40752        -0.39606
C           2.92494         1.29152        -0.62908
C           3.23618         1.40885         0.59318
C           3.89289         2.44794         0.83674
C           3.98525         3.55861        -0.13120
N           4.67858         4.56942         0.22995
C           4.55620         5.64120        -0.64016
C           5.30736         6.71433        -0.36710
C           5.27394         7.79615        -1.41697
N           6.08619         8.80194        -1.28415
C           6.85928         8.21882        -2.41460
C           6.98062         6.47693        -2.12439
S           6.05309         4.09561        -1.94720
C           4.61216         1.91758        -1.63552
C           3.74377        -0.10526        -1.54774
S           3.69980        -2.36895        -1.34778
H           0.72649         0.90436         0.16937
H           0.95422        -0.61443        -0.41893
H           4.31885         2.45331         1.78131
H           3.56780         3.49736        -1.21038
H           4.28621         5.47385        -1.78136
H           6.12944         6.70141         0.38403
H           5.25675         7.44428        -2.59439
H           6.66889         9.29374        -3.31867
H           7.67104         7.75368        -1.56008
H           5.14828         0.97314        -0.98962
H           2.55167        -0.72018        -1.79833
H           3.02837        -0.79131        -0.49410
H           3.97413        -3.37879        -2.30508

