%chk=NCc1ccccnc2cqcn1rdCCdCCdCCdCCdCCd2.chk
%NProcShared=20
# opt freq b3lyp/6-31g(2df,p)

Title Card Required 

0  1
N           1.02087         0.08351         0.00692
C           2.86774         0.36425         0.53906
C           4.17682         1.17068         2.21577
C           4.61272         0.84783         1.11139
C           5.38911         1.20140         2.10777
C           6.90759         1.44993         2.63486
C           7.00367         2.55782         4.76924
N           8.53887         3.10374         5.81580
C          10.18502         3.77208         7.09708
C           9.47222         2.81961         5.27804
C           7.91013         2.02014         3.74437
N           5.83805         1.90351         3.54540
C          10.53856         3.48571         6.56162
C          12.13367         3.67238         6.92366
C          12.89734         4.15908         7.87213
C          14.02352         4.13162         7.81203
C          14.13239         4.68790         8.79721
C          15.74257         4.99496         9.47649
C          14.47665         5.48282        10.43518
C          15.84624         5.42812        10.40048
C          13.85763         5.18641        10.09933
C          11.58092         4.60898         8.71332
H           0.67164        -0.37974        -0.91887
H           0.63402         1.01786        -0.03809
H           2.84509         0.62995        -0.85388
H           2.84417        -0.91492        -0.05515
H           5.13199         0.28911         0.57554
H           4.42497         1.83871         3.34838
H           7.23344         1.03408         1.81096
H           5.92609         2.66093         4.96538
H           9.49238         2.12038         3.91525
H          10.73266         4.21499         7.99168
H          12.68868         3.32364         6.24791
H          12.63082         4.86939         9.26192
H          14.82821         4.01185         7.57949
H          12.73033         5.37793        10.11383
H          16.65395         4.74920         9.00378
H          14.92962         6.22584        11.87033
H          17.59556         5.53497        10.50895
H          15.51522         5.82627        10.94265
H           9.83630         4.51992         8.55849

