%chk=NCNCdC1C2dCCqdOrCdNC3dCCdCCdCCdC3C12.chk
%NProcShared=20
# opt freq b3lyp/6-31g(2df,p)

Title Card Required 

0  1
N           1.04799         0.04652         0.05692
C           2.49938         0.13656         0.10648
N           2.83532         1.37418         0.73275
C           3.87071         2.17650         1.12580
C           3.50019         3.40827         1.76900
C           3.88002         4.66180         1.86247
C           3.87975         5.71269         1.00220
C           2.48929         5.56690         0.52592
O           1.82117         4.53514         0.37333
C           1.72990         6.73327         0.91739
N           0.48633         6.53378         0.70418
C           0.02837         6.87177         1.89288
C          -0.27167         8.27182         1.86223
C          -1.56312         9.13138         1.86846
C          -1.97278         9.57011         3.06462
C          -1.26438         8.98890         4.20991
C          -0.64436         7.77747         4.52486
C          -0.09006         6.16502         4.02036
C           0.97910         5.82010         3.00839
C           2.55652         4.52206         2.81911
H           0.73488        -0.82958        -0.33797
H           0.70888         0.79892        -0.54063
H           2.88437        -0.00599        -0.91718
H           2.87189        -0.70496         0.69943
H           2.01962         1.96069         0.79819
H           4.78648         1.73539         0.59627
H           4.17907         6.53873         1.66689
H           2.16541         7.35882         1.77393
H           0.35643         8.90127         1.21493
H          -2.02120         9.67412         1.01054
H          -2.75013        10.37843         3.17997
H          -1.09442         9.84846         4.89672
H          -0.68288         7.72340         5.60896
H          -1.19778         6.12670         3.58643
H           3.37270         4.75947         3.58263

