%chk=NdC1CdCCdCCdCC2dSqCdNNCCC2rNS1.chk
%NProcShared=20
# opt freq b3lyp/6-31g(2df,p)

Title Card Required 

0  1
N           3.34128         1.17768        -0.77147
C           4.20469         1.67816         0.12422
C           3.56474         1.45776         1.39836
C           4.26507         0.53694         2.00907
C           5.02182         1.36368         2.88635
C           6.29289         1.19237         2.73682
C           7.13888         2.06053         3.41485
C           8.43510         1.87326         3.25427
C           8.73839         3.15873         3.72936
S           8.24678         4.49095         2.45508
C          10.14286         5.19371         3.22659
N          10.73266         5.27009         4.44551
N          10.45703         4.95192         5.74905
C           9.25370         5.26200         6.50082
C           8.13526         4.42204         5.94883
C           8.69144         3.20045         5.26064
N           7.77726         3.04019         1.01293
S           5.97174         2.89963         0.00828
H           2.49095         0.74152        -0.23929
H           2.66459         1.95013         1.74650
H           4.92717        -0.12929         1.41410
H           4.60298         2.32572         3.25566
H           6.79299         0.55457         2.00756
H           6.63925         2.96414         3.83612
H           8.96090         1.22350         2.57245
H          10.72018         5.87255         2.56532
H          11.05094         4.25043         6.21911
H           9.02828         6.32771         6.44175
H           9.34279         5.05360         7.58803
H           7.50023         5.02195         5.29565
H           7.50249         4.06633         6.77418
H           7.98715         2.41316         5.55598
H           9.61397         2.78213         5.69181
H           8.50403         2.85238         0.29809

