%chk=NdC1CdCCdCNdCCdC1CdCSO.chk
%NProcShared=20
# opt freq b3lyp/6-31g(2df,p)

Title Card Required 

0  1
N           1.55939         0.00453         0.10276
C           3.17048        -0.09047         0.29852
C           3.05893        -0.65571         1.47740
C           4.27526        -0.79300         1.76427
C           4.43634        -1.33391         2.89239
C           5.62692        -1.08622         2.37584
N           6.40129        -1.56807         3.38071
C           7.92662        -1.43013         3.09310
C           6.99624        -0.68503         1.54039
C           5.30979        -0.03915         0.19265
C           3.88807         0.62059        -1.18322
C           3.39266         1.33852        -2.68086
S           2.13325         2.14120        -4.35494
O           3.12465         2.84564        -5.82407
H           0.62572        -0.33262         0.80334
H           2.32494        -0.96160         2.11593
H           5.49489        -0.56697         1.29154
H           4.45753        -1.76583         3.79317
H           6.38066        -0.27759         0.68875
H           9.12539        -1.21400         2.64232
H           7.69463        -1.33400         2.89263
H           2.40292         0.78077        -1.51772
H           4.08683         1.65971        -3.35081
H           2.63373         3.24498        -6.65688

