%chk=Ndc1ccccc2ccccccnc-2c1.chk
%NProcShared=20
# opt freq b3lyp/6-31g(2df,p)

Title Card Required 

0  1
N           2.59669         0.23775         0.26067
C           4.36897         0.56954         0.59945
C           3.38381         1.20803         1.25972
C           4.73083         1.25335         1.30688
C           5.33321         2.25325         2.33732
C           6.74091         2.33534         2.42308
C           7.35682         3.04315         3.14996
C           8.57257         2.53149         2.62218
C           8.33741         3.40489         3.51480
C          10.25223         2.75443         2.84791
C          11.10855         4.12783         4.26635
C          12.41255         3.84286         3.97368
C          11.20110         4.32731         4.47384
N           9.64249         3.59933         3.73258
C           8.12202         2.28405         2.37128
C           6.49302         1.25870         1.31072
H           1.10671         0.49983         0.53042
H           2.51278         1.58491         1.64830
H           6.10648         0.38160         0.40822
H           4.53564         2.62580         2.72030
H           7.81090         1.33934         1.39605
H           9.50827         1.79304         1.86253
H           8.66344         4.32920         4.47436
H          11.46065         2.79569         2.89519
H          10.68800         5.27664         5.45062
H          13.44405         3.95506         4.08950
H          12.27122         5.28383         5.45842
H           5.11665         0.33899         0.36867

