%chk=NdC1CdC2SNdC2C2dS1CdCCdC2.chk
%NProcShared=20
# opt freq b3lyp/6-31g(2df,p)

Title Card Required 

0  1
N           1.51694        -0.54515         0.37114
C           2.75077        -0.38168         0.01613
C           3.13252         0.84999        -0.78444
C           4.43124         1.09220        -0.87990
S           5.54329         2.09445        -1.66564
N           6.53104         1.12670        -0.68109
C           5.54400         0.48850        -0.19667
C           5.31092        -0.57275         0.73774
S           4.07152        -1.70388         0.13867
C           4.18923        -2.86589         1.48437
C           5.08087        -2.76127         2.57661
C           5.85233        -1.63880         2.86952
C           5.95479        -0.58584         1.96707
H           0.95448         0.27835         0.07913
H           2.39774         1.45366        -1.30310
H           3.92660        -3.90179         1.23793
H           5.24751        -3.64235         3.20991
H           6.44708        -1.61512         3.78593
H           6.59562         0.25266         2.23885

