%chk=Ndc1ccc2ccqn1r[CH]CdCCdCCdC2.chk
%NProcShared=20
# opt freq b3lyp/6-31g(2df,p)

Title Card Required 

0  2
N           1.91080        -0.14477         0.26922
C           3.36173        -0.53877         0.10220
C           3.47137        -1.31900         1.72690
C           4.79837        -1.42929         2.47336
C           6.35500        -2.33739         3.09556
C           6.92055        -1.41761         2.24772
C           6.28915        -1.92006         0.87143
N           5.10651        -0.93422         0.24239
C           8.23560        -2.08401         1.40813
C           9.29683        -2.88392         2.53975
C          10.40511        -3.22123         3.27306
C          10.07092        -4.70332         4.06494
C          10.85625        -4.45509         5.08377
C           8.91780        -4.05205         5.17691
C           7.50832        -3.49482         4.32907
H           0.91353        -0.53747         0.60018
H           2.39735        -1.64675         1.76134
H           5.34715        -0.35821         1.90244
H           7.07302        -0.56147         1.34530
H           8.69036        -1.31318         2.45330
H           8.84132        -3.09392         3.41934
H          11.45994        -2.92908         3.21685
H           9.67139        -5.61969         5.19272
H          12.13848        -4.28932         4.75817
H          10.27095        -4.42816         5.85129
H           6.40278        -3.88121         4.25666

