%chk=NdC1CqdSrCqNrdC[C]SC2dCCdC12.chk
%NProcShared=20
# opt freq b3lyp/6-31g(2df,p)

Title Card Required 

0  1
N           0.89671        -0.01536         0.00853
C           2.18577         0.10858        -0.04625
C           2.92614         1.32371         0.50941
S           3.14560         1.26403         2.18909
C           3.52161         2.39045        -0.41370
N           4.29337         3.37794         0.19518
C           3.44270         2.41984        -1.75721
C           3.28598         1.29394        -2.56990
S           4.02906        -0.06470        -3.18444
C           4.03871        -0.81467        -1.65137
C           4.86662        -1.40050        -0.77442
C           3.63197        -2.07079        -0.31690
C           3.12564        -0.85315        -0.56198
H           0.47593         0.80918         0.45180
H           4.63955         3.13840         1.12609
H           4.98562         3.82203        -0.40813
H           3.93329         3.22022        -2.29541
H           5.94284        -1.49112        -0.66002
H           3.35889        -2.94277         0.24749

