%chk=Ndc1ccccc2cqc1dSrdCCdCCdCCd2.chk
%NProcShared=20
# opt freq b3lyp/6-31g(2df,p)

Title Card Required 

0  1
N           1.88796         0.06431        -0.02162
C           3.47437         0.22184        -0.20296
C           2.98399         1.07991        -1.20298
C           4.06101         1.47172        -1.65902
C           5.12473         2.00427        -2.27888
C           6.54957         1.62605        -1.83865
C           7.42093         2.70558        -3.09515
C           7.17907         1.45549        -1.64013
C           5.63390         0.44794        -0.46796
S           4.69077        -0.78932         0.97269
C           8.87553         1.81913        -2.06337
C          10.34328         2.58174        -2.95101
C          10.73001         3.65475        -4.19992
C          12.19943         3.76010        -4.32255
C          10.62761         3.89980        -4.48514
C           8.61780         3.56025        -4.08993
H           0.88500         0.49910        -0.52694
H           2.15818         1.47600        -1.66400
H           4.94305         1.26856        -1.42255
H           4.53944         2.56106        -2.92694
H           7.13641         0.59715        -0.64107
H           9.28466         2.57651        -2.94492
H          11.35706         2.34749        -2.67836
H          10.42021         4.77762        -5.50688
H          13.22742         3.38485        -3.88578
H          11.75523         4.59932        -5.29934
H           7.56859         3.90117        -4.48674

