%chk=NdCc1ccc[nH]cc2n1CdCCdCCdCCdCN2.chk
%NProcShared=20
# opt freq b3lyp/6-31g(2df,p)

Title Card Required 

0  1
N           4.30311         1.10776        -1.05944
C           6.33529         2.01476        -1.92687
C           8.82298         3.37548        -3.22822
C           7.06108         2.31340        -2.21248
C           5.65869         2.82340        -2.70023
C           7.54449         1.94655        -1.86164
N           8.44760         2.37914        -2.27535
C           9.90424         2.47801        -2.36991
C          10.25476         3.74610        -3.58267
N          11.52674         4.60721        -4.40621
C          14.10754         5.56369        -5.32095
C          16.11866         6.55537        -6.26937
C          15.58500         5.93180        -5.67300
C          14.95912         6.51244        -6.22831
C          15.03654         4.78709        -4.57824
C          13.61385         4.63908        -4.43668
C          12.91841         3.99028        -3.81620
C          11.08368         3.72230        -3.55990
N          10.94482         3.04022        -2.90759
H           2.58919         0.28544        -0.27300
H           4.82462         0.86626        -0.82848
H           5.95413         1.07159        -1.02485
H           4.63574         2.45559        -2.34846
H           7.32330         1.05346        -1.00751
H           7.13989         3.21836        -3.07796
H           9.35960         1.91082        -1.82746
H          16.55458         5.83190        -5.57746
H          17.34692         7.73061        -7.39333
H          17.60991         5.62401        -5.37864
H          15.32295         7.23145        -6.91595
H          15.84735         4.72811        -4.52183
H          13.08912         5.90204        -5.64454
H          13.72691         3.70398        -3.54238
H          10.75861         5.17757        -4.95168
H          11.67208         2.84453        -2.72043

