%chk=NdCd[SH]C1dCCdCCdCCdCOCCCS1.chk
%NProcShared=20
# opt freq b3lyp/6-31g(2df,p)

Title Card Required 

0  1
N           1.79969         0.15267        -0.08390
C           3.11914         0.85857        -0.11252
S           4.97506         2.02417        -0.36122
C           6.76544         4.11984        -0.04939
C           6.54919         2.40487        -0.29172
C           6.79114         3.41855        -1.26628
C           8.22779         3.39081        -1.30726
C           8.85593         4.53112        -1.98060
C          10.09518         4.74919        -1.58731
C          10.30748         6.08594        -1.72512
C          11.55222         6.16492        -1.59737
O          11.58312         6.99500        -2.64733
C          13.01893         7.41328        -2.10268
C          12.17047         9.15267        -1.99304
C          10.62023         7.96642        -0.95329
S           8.50487         6.07189        -0.27980
H           0.79588        -0.59177         0.51169
H           4.80181         0.20606        -0.75050
H           6.85394         1.15559        -0.33484
H           5.56066         4.23149        -1.30164
H           8.62802         2.55733        -0.65223
H           8.41126         5.79766        -2.31092
H          10.54756         4.08258        -0.91559
H           9.49639         7.20899        -1.87381
H          12.42783         5.67978        -1.36655
H          13.71114         7.54242        -2.83923
H          13.65356         7.80371        -1.01488
H          13.01219        10.27512        -1.49586
H          12.93231         9.80991        -3.18383
H          12.12609         8.57855        -0.95368
H          11.86414         8.51147        -1.87061

