%chk=NdCdCC1dS2CdCCdCCdC2SNdCCdC1.chk
%NProcShared=20
# opt freq b3lyp/6-31g(2df,p)

Title Card Required 

0  1
N           1.18613         0.05650         0.10195
C           2.34458        -0.01417         0.02306
C           3.64823         0.01525        -0.07997
C           4.49808        -1.16819        -0.11442
S           6.01726        -1.30056         0.93473
C           6.32994         0.13322         1.92054
C           7.15508         1.16050         1.67149
C           7.82492         1.60194         0.48326
C           7.81108         1.07704        -0.74027
C           7.30187        -0.17728        -1.22219
C           7.01653        -1.27339        -0.51252
S           7.48530        -2.84112        -1.10799
N           6.91005        -2.87583        -2.67471
C           5.74700        -3.45630        -2.70586
C           4.49509        -2.66963        -2.32553
C           4.20940        -2.40462        -1.01525
H           0.70602        -0.79090        -0.22841
H           4.14002         0.91054        -0.42813
H           6.03543         0.08277         2.97453
H           7.38081         1.82437         2.51662
H           8.42398         2.50907         0.60919
H           8.41671         1.57942        -1.49629
H           7.58649        -0.33554        -2.25905
H           5.61682        -4.27700        -3.44089
H           4.40108        -2.04819        -3.21368
H           4.34380        -3.22782        -0.31889

