%chk=NdNNC1dNNdNCdCCdCqCdOrC1.chk
%NProcShared=20
# opt freq b3lyp/6-31g(2df,p)

Title Card Required 

0  1
N           1.18514         0.02724        -0.17828
N           2.51274        -0.08362         0.01305
N           3.63882         0.60050        -1.13240
C           5.49776         0.79259        -1.25202
N           4.99785         1.40017        -2.36737
N           6.07297         1.19992        -3.00528
N           6.69940         2.09145        -3.49088
C           7.94383         1.56177        -3.51929
C           8.87407         2.18992        -4.18151
C          10.09106         1.94709        -3.56180
C           9.68405         1.74460        -2.31434
C          11.18449         2.30004        -3.75631
O          11.68142         2.80907        -4.97714
C           7.59966         1.19223        -1.45779
H           0.55226        -0.41527         0.59671
H           2.85333         0.97494        -1.80840
H           8.52836         0.55101        -2.66822
H           8.67540         2.82544        -5.00383
H          11.02476         1.33624        -2.63740
H          12.58862         2.11836        -3.75906
H           7.12145         1.06472        -0.29969
H           7.19819        -0.09885        -1.05932

