%chk=Nn1ccccc2cqcc1rdNNdCNdCCd2.chk
%NProcShared=20
# opt freq b3lyp/6-31g(2df,p)

Title Card Required 

0  1
N           1.96743         0.21454        -0.01799
N           3.70718        -0.27663        -0.03520
C           3.40098        -1.61402        -0.11661
C           4.47511        -2.32401        -0.16160
C           5.11597        -3.56837        -0.22660
C           6.44566        -3.69275        -0.22718
C           7.89189        -4.13045        -0.23616
C           8.35626        -2.41797        -0.13102
C           7.07517        -0.83100        -0.06402
C           5.54230         0.05653        -0.02173
N           9.47058        -3.13673        -0.19071
N          10.72337        -3.77226        -0.22896
C          10.77786        -5.13552        -0.31620
N          12.07232        -5.42328        -0.31896
C          11.03117        -6.11757        -0.32747
C           8.93841        -5.40370        -0.30218
H           1.24893        -0.59037        -0.05770
H           1.28795         1.01651         0.02952
H           2.39645        -2.02150        -0.13408
H           5.22622        -1.65005        -0.11551
H           4.29561        -4.19596        -0.23926
H           6.57396        -2.64460        -0.17193
H           8.11972        -0.39737        -0.04878
H           5.21981         1.12739         0.03090
H           9.79770        -6.61546        -0.39715
H          11.44827        -7.29237        -0.41435
H           8.17990        -6.23216        -0.37598

