%chk=NNCdNCCC1dCSCdCdCdCCdCC1dS.chk
%NProcShared=20
# opt freq b3lyp/6-31g(2df,p)

Title Card Required 

0  1
N           1.04071        -0.02799        -0.14262
N           2.49670        -0.05780        -0.10246
C           3.31215        -0.93475        -0.89806
N           4.64094        -1.03385        -0.94551
C           5.34006        -2.22875        -1.95260
C           7.20134        -2.58643        -2.02141
C           8.80970        -3.64230        -2.56559
C           9.63448        -2.61969        -2.34982
S          10.57273        -2.15466        -3.68967
C          11.89723        -3.07712        -3.17453
C          12.72131        -3.43513        -4.17093
C          13.31092        -4.02138        -4.96060
C          13.70713        -5.26242        -5.24143
C          13.19085        -6.00742        -3.97905
C          11.67554        -5.81829        -3.87131
C           9.83574        -5.01943        -3.48820
S           8.50183        -5.66990        -4.43474
H           0.66092         0.69563         0.49499
H           0.63261        -0.89034         0.23602
H           2.95417         0.65541         0.46236
H           2.63793        -1.58693        -1.49370
H           4.96749        -1.85984        -2.91744
H           4.85588        -3.09642        -1.52232
H           7.35109        -2.44850        -0.92229
H           7.40507        -1.48382        -2.27485
H           9.26423        -1.83192        -1.70564
H          12.23237        -2.84106        -2.18786
H          13.76949        -5.80835        -6.19329
H          14.34521        -5.83204        -3.70453
H          11.80723        -6.80642        -4.52342

