%chk=NNdCC1dc2ccccc2dCCdNNdNCdCCdN1.chk
%NProcShared=20
# opt freq b3lyp/6-31g(2df,p)

Title Card Required 

0  1
N           0.91135         1.41987        -0.51072
N           2.11268         1.73573        -0.17119
C           3.04763         0.82990        -0.17585
C           2.93344        -0.37826         0.57088
C           4.11974         0.21951         1.60366
C           5.98819         0.54630         1.69213
C           6.86638         1.12655         2.71151
C           6.48669         1.91675         3.86876
C           5.19625         2.23135         3.79720
C           4.08791         1.54151         2.83794
C           2.95133         2.06329         3.26488
C           1.87093         1.36237         2.71350
N           0.67709         1.75868         2.53200
N           0.08122         0.59885         2.19198
N          -1.00326         0.76596         1.68122
C          -1.39063        -0.43484         1.17950
C          -1.98180        -0.29001         0.03643
C          -0.25649        -0.57988        -0.61808
N           1.12619        -0.91789         0.12267
H           0.99051         0.66361        -1.19715
H           0.52346         0.94374         0.33498
H           3.73013         1.56405         0.18450
H           6.67543         0.48521         0.83460
H           8.00261         1.24523         2.73616
H           7.18606         2.36821         4.64496
H           4.90100         2.99627         4.54326
H           2.83930         2.70992         4.11487
H           2.13335         0.33479         2.46443
H          -0.71310        -1.28379         1.14405
H          -2.80827         0.45339         0.35920
H          -0.92878        -1.24046        -1.44888

