%chk=NNN[C]1CqdSrCdCCdCC1dS.chk
%NProcShared=20
# opt freq b3lyp/6-31g(2df,p)

Title Card Required 

0  2
N           0.88745        -0.15928         0.17037
N           2.27737        -0.07645         0.12292
N           3.02171        -1.18217         0.54738
C           4.43364        -1.02254         0.06316
C           5.17659        -2.31728        -0.29944
S           4.37320        -3.66764        -0.95330
C           6.63819        -2.44463         0.02680
C           7.57797        -1.49376        -0.03683
C           7.43880        -0.24240        -0.69383
C           6.34281         0.50095        -0.86180
C           5.01365         0.37647        -0.23262
S           4.29225         1.92181         0.02560
H           0.53057         0.66143        -0.33832
H           0.54038        -0.01992         1.12098
H           2.63371         0.79102         0.55832
H           2.62054        -2.08097         0.25680
H           6.99268        -3.45323         0.24653
H           8.60685        -1.74997         0.22142
H           8.34829         0.15599        -1.13661
H           6.46169         1.40275        -1.45535

