%chk=NNSSC1[SH]dSdCCdCC1dS.chk
%NProcShared=20
# opt freq b3lyp/6-31g(2df,p)

Title Card Required 

0  1
N           1.41673         0.28428         0.10929
N           2.92070         0.41843         0.11710
S           3.44624         1.94718         0.70660
S           5.47036         1.65171         1.49298
C           6.59204         3.40345         1.52557
S           8.07104         3.06123         0.43466
S           8.64530         4.78724         0.05346
C           9.66292         4.95771         1.43104
C           9.04391         5.57742         2.61691
C           8.51212         4.51582         3.25067
C           7.11617         3.85686         2.98337
S           6.02759         3.87989         4.28779
H           1.10505        -0.62894        -0.25744
H           0.95695         0.96663        -0.50154
H           3.25565         0.25755        -0.83936
H           5.95520         4.17834         1.09299
H           7.51151         2.76434        -0.70671
H          10.63820         4.45180         1.55040
H           9.86846         6.16504         3.06428
H           9.16795         4.00298         3.96599

