%chk=NSc1cccc2cncc-2cc1dS.chk
%NProcShared=20
# opt freq b3lyp/6-31g(2df,p)

Title Card Required 

0  1
N           1.74289         0.37953         0.25276
S           3.25530         1.06670        -0.25615
C           4.28664         1.69571         1.12802
C           5.20664         0.91718         1.66807
C           5.67615         1.32752         2.97082
C           6.91802         1.65860         3.11653
C           7.08605         2.91598         3.79141
C           6.73677         3.35166         5.00312
N           7.32133         4.55161         5.33695
C           7.76032         4.95464         4.16720
C           7.23227         4.08516         2.94820
C           6.19326         4.12137         1.97238
C           4.58884         3.30757         1.59132
S           3.17794         4.16242         2.04470
H           1.41236        -0.44205        -0.30570
H           0.98029         1.02520        -0.00423
H           5.70674         0.14782         1.09102
H           4.92500         1.88214         3.57651
H           7.65651         1.47605         2.31577
H           6.08526         2.84172         5.70383
H           8.73707         5.50448         4.16140
H           6.72880         3.89692         1.03010

