%chk=NSN1CdCC2dNNdCCdCCdCC1dCdC2.chk
%NProcShared=20
# opt freq b3lyp/6-31g(2df,p)

Title Card Required 

0  1
N           1.92347         0.25347         0.52877
S           3.99231         0.68345         1.32901
N           6.12562         1.05553         2.51381
C           5.30523         0.45540         1.62929
C           5.15844         1.14830         3.16517
C           6.52265         1.54245         4.14163
N           6.70498         1.98294         5.26945
N           7.95949         1.96899         5.22210
C           8.52898         2.35990         6.23076
C           9.96435         2.50123         6.11642
C          10.38661         2.81995         7.37446
C          10.81064         2.27758         6.09256
C           9.85527         1.61832         4.58945
C           8.07477         1.20062         3.20560
C           7.99839         0.68492         1.84001
C           8.13959         1.12403         3.00639
H           1.13143        -0.24139        -0.49712
H           0.92844         0.96057         0.38967
H           5.90178         0.26205         0.78236
H           4.34558         1.42628         3.82814
H           7.93788         2.63890         7.00805
H          11.10198         2.12160         4.73260
H          10.14943         3.15298         8.37442
H          12.30584         2.47695         6.58152
H          11.12856         1.76249         5.75555
H           9.45797         0.92588         2.46674

