%chk=OC1dCCdCCdCCdCdCdCCdCNdCCdC1.chk
%NProcShared=20
# opt freq b3lyp/6-31g(2df,p)

Title Card Required 

0  1
O           3.31085        -2.47312        -0.51854
C           4.89182        -3.21864        -1.42770
C           4.12206        -1.72080        -1.31834
C           4.89646        -0.54063        -1.13565
C           5.63213        -1.10025        -2.08259
C           7.01178        -1.35754        -1.82718
C           7.69596        -2.19460        -2.61850
C           9.11824        -2.42294        -2.56484
C           9.78364        -3.19844        -3.39347
C          10.40334        -3.89231        -4.16767
C          11.09009        -4.61114        -5.01091
C          11.53706        -5.86215        -4.64851
C          11.92991        -6.85143        -5.39921
N          10.82369        -7.62500        -4.60821
C           9.31229        -6.83756        -4.19602
C           7.88239        -5.52370        -3.07629
C           6.56089        -4.44094        -2.18820
H           2.38485        -1.42154        -0.51407
H           2.83070        -1.42140        -1.90050
H           5.22886        -0.06046        -0.19738
H           5.04853        -1.90744        -2.75524
H           7.43624        -0.88590        -0.96070
H           7.11170        -2.81623        -3.30820
H           9.61867        -1.76680        -1.85675
H          11.55780        -4.33597        -5.93061
H          11.14922        -6.24208        -3.67892
H          12.31977        -6.76033        -6.49013
H          10.09668        -7.68090        -5.23119
H           8.92976        -6.56212        -3.11107
H           6.50674        -3.41065        -1.23210

