%chk=OdC1CdCd[SH]C2dCSCNdCC2dCCdC1.chk
%NProcShared=20
# opt freq b3lyp/6-31g(2df,p)

Title Card Required 

0  1
O           1.29326         0.12016        -0.10864
C           2.36001         0.66945        -0.21608
C           3.20058         0.65665        -1.47783
C           4.51373         0.61075        -1.38953
S           6.07429         0.63031        -0.99811
C           6.54195         2.46677        -1.24250
C           7.78390         2.55603        -1.75723
S           8.62698         3.88596        -2.44355
C           8.16369         5.25062        -1.39079
N           6.80766         5.75237        -1.45777
C           5.78828         5.01393        -1.20319
C           5.59106         3.54663        -0.85578
C           4.44823         3.33391        -0.16600
C           3.27316         2.75192         0.52109
C           3.01441         1.46200         0.90010
H           2.75372         1.40316        -2.13236
H           6.67467         0.07180        -2.01964
H           8.37725         1.64706        -1.81777
H           8.83579         6.07197        -1.68329
H           8.42866         5.03214        -0.35258
H           4.85010         5.60159        -1.18829
H           4.85128         2.36818         0.14207
H           2.40694         3.39782         0.38425
H           3.76168         0.73486         1.23551

