%chk=Odc1cccc2cqncc3cqc1rC1dCCd31rdCCdC2.chk
%NProcShared=20
# opt freq b3lyp/6-31g(2df,p)

Title Card Required 

0  1
O           1.11003         0.02783         0.73566
C           2.17956         0.04200         1.29252
C           3.14821         1.11879         1.55459
C           4.51309         0.68277         1.22638
C           5.63333         0.37597         2.23767
C           6.87067         0.16656         2.80833
C           7.16847         0.11781         4.33120
N           6.38111         0.18508         5.52073
C           5.09536         0.09344         5.24634
C           3.71859         0.00961         5.27764
C           2.68741        -0.21717         4.09966
C           2.90309        -0.78823         2.70659
C           1.66608         0.09865         5.17101
C           1.47822         0.23307         6.45355
C           2.78857         0.19352         6.30241
C           8.50455         0.11638         4.39945
C           9.31126         0.42022         3.17466
C           8.24434         0.30581         2.22610
H           2.08169         1.08064         2.22887
H           4.75986         0.00044         0.36878
H           4.88406         0.06868         2.87675
H           5.14642         0.17145         4.26781
H           2.88756        -1.19533         1.56386
H           0.61722         0.21639         7.13108
H           8.98231        -0.69504         3.75776
H           9.97487         0.41542         4.31910
H           8.30968         0.14802         1.13539

