%chk=OdC1CdCSS2dCCdCCdCSSCdC12.chk
%NProcShared=20
# opt freq b3lyp/6-31g(2df,p)

Title Card Required 

0  1
O           0.80330        -0.44799        -0.21148
C           1.96028        -0.44856        -0.61716
C           2.78776         0.86511        -0.38592
C           4.09211         1.10360        -0.19077
S           5.26279        -0.09038        -0.00902
S           4.22041        -1.80046        -0.06436
C           5.14224        -2.32616        -1.46009
C           5.01388        -3.71975        -1.53515
C           5.25197        -4.28716        -2.73494
C           4.70132        -5.59245        -2.76230
C           4.25914        -6.01678        -3.94904
S           2.50346        -6.15054        -3.79674
S           1.90075        -3.92562        -3.32824
C           2.17884        -3.08114        -1.57678
C           2.62449        -1.72226        -1.36404
H           2.18251         1.75990        -0.23785
H           4.49220         2.11107        -0.03216
H           5.61482        -1.69720        -2.23210
H           4.45122        -4.22230        -0.75672
H           5.49510        -3.68605        -3.59873
H           4.06216        -5.85252        -1.90952
H           4.82277        -5.77023        -4.85304
H           1.78146        -3.70827        -0.77332

