%chk=OdC1[C]dC2CdCCdCCdCCdCCdC12.chk
%NProcShared=20
# opt freq b3lyp/6-31g(2df,p)

Title Card Required 

0  2
O           1.93802         0.80054        -0.06068
C           3.18960         1.09390        -0.05709
C           3.72172        -0.07724        -0.06659
C           4.86171         0.30095        -0.06594
C           5.96632        -0.38012        -0.05184
C           6.78584         0.55335        -0.03684
C           8.06633         0.53427        -0.03856
C           8.78148         1.53302        -0.05551
C          10.05972         1.85661        -0.06995
C           9.71457         3.13196         0.63189
C          10.58697         3.56409        -0.21289
C           8.82754         3.78645        -0.34357
C           6.67822         3.09112        -0.11235
C           4.99358         2.23689        -0.08523
H           6.31080        -1.31157        -0.04980
H           6.47902         1.47236        -0.03924
H           8.63662        -0.24458        -0.04228
H           8.13169         2.27410         0.00558
H          10.83893         1.09478        -0.01327
H           9.75531         4.75498         0.36033
H          11.93149         2.89323        -0.03133
H          10.42497         4.07225        -0.44173
H           5.63239         3.62123        -0.06430

