%chk=OdC1Cdc2cccccc3cc-3c2dC1.chk
%NProcShared=20
# opt freq b3lyp/6-31g(2df,p)

Title Card Required 

0  1
O           2.32585        -0.06922         0.15252
C           3.57476         0.11205        -0.10526
C           3.78436         0.87111        -1.18578
C           5.33853         0.90397        -1.23264
C           5.06298         1.65526        -2.30181
C           6.22156         1.87216        -2.61066
C           6.87241         2.51056        -3.51945
C           8.10754         2.52253        -3.53477
C           9.22918         2.91972        -4.13850
C           9.44825         2.21174        -3.07527
C          10.52968         1.91442        -2.66790
C           9.11298         1.24934        -1.73025
C           7.21137         0.58372        -0.77220
C           5.62758         0.10729        -0.10077
H           2.77759         1.25215        -1.72808
H           4.42916         2.10247        -2.93829
H           6.90647         1.47420        -2.04410
H           6.52630         3.01746        -4.24038
H           7.97103         1.93616        -2.70126
H           8.92274         3.52292        -4.94142
H          11.04624         2.79770        -3.92807
H           4.76883        -0.51244         0.78300

