%chk=OdC1Cdc2ncccncc3cqc2dC1rCdCNC3.chk
%NProcShared=20
# opt freq b3lyp/6-31g(2df,p)

Title Card Required 

0  1
O           1.90788         0.08931        -0.02986
C           3.60735         0.17897        -0.02943
C           3.65961         1.51767        -0.01720
C           5.51200         1.58526        -0.02035
N           4.98154         2.78371        -0.00760
C           6.11425         3.09019        -0.00456
C           6.88321         4.12308         0.00390
C           8.12408         4.31443         0.01408
N           9.00079         5.33133         0.00779
C          10.13302         4.20581        -0.00259
C          10.48401         5.51538         0.11673
C           9.72836         3.66188        -0.02676
C           7.68202         1.95457        -0.02944
C           5.86916         0.84234        -0.02477
C          11.51557         5.24738         0.00046
C          13.24847         6.24933         0.02177
N          13.57763         8.13588         0.03256
C          11.50088         7.54084        -0.01785
H           2.49876         2.17246        -0.01277
H           7.19509         3.18875        -0.00340
H           6.44169         4.89471         0.00937
H           8.75660         2.76064         0.00442
H          11.34426         3.77348        -0.00935
H           4.68731        -0.44870        -0.03261
H          12.55501         6.55525         0.03010
H          14.88008         6.51757         0.02241
H          15.05160         8.83509         0.03821
H          10.43912         7.84149        -0.79170
H          10.33132         7.90983         0.66169

