%chk=OdC1CdC2SCdCSSCd[SH]C2dCCdCS1.chk
%NProcShared=20
# opt freq b3lyp/6-31g(2df,p)

Title Card Required 

0  1
O           1.79580        -0.28962        -0.14967
C           2.99124        -0.10204         0.12322
C           4.09165        -1.16840        -0.50657
C           5.40236        -1.70592        -0.65855
S           5.44913        -3.02073        -1.81342
C           6.89622        -2.48081        -2.50354
C           7.74172        -3.23480        -3.13451
S           9.01191        -2.40027        -3.94867
S          10.41232        -3.49152        -3.06431
C          10.62923        -2.40135        -1.68448
S           9.00144        -2.00826        -0.27382
C           6.93268        -1.15249        -0.00801
C           6.53704         0.15371         0.27095
C           6.15178         1.21897         1.37498
C           4.80405         1.81595         1.51376
S           3.26100         1.30774         1.13823
H           3.31541        -1.68881        -1.09841
H           7.19994        -1.44211        -2.34216
H           7.65241        -4.32230        -3.19041
H          11.77503        -2.51054        -1.49679
H           8.93749        -3.34044        -0.51856
H           5.44664         0.11637         0.21652
H           6.87834         1.94380         1.60826
H           4.76192         2.76575         2.03959

