%chk=Odc1ncc2cqc3c1dCCdC3rCdCCd2.chk
%NProcShared=20
# opt freq b3lyp/6-31g(2df,p)

Title Card Required 

0  1
O           2.99269         1.51877        -0.89874
C           3.72086         0.76510        -0.26443
N           3.03122        -0.41046         0.41888
C           3.70143        -1.39634         1.04846
C           5.01349        -1.93598         1.39692
C           6.38139        -1.64978         1.32690
C           6.70706        -0.22090         0.64722
C           5.52061         1.16964         0.00021
C           6.05115         1.99598        -1.05801
C           6.99605         0.98143        -0.95250
C           6.16589        -0.06000        -0.65634
C           6.85309        -3.18499         2.28763
C           7.62602        -2.48315         1.75479
C           5.80822        -2.80988         1.96921
H           4.26992        -0.70447         0.62997
H           5.27113         2.53223        -1.61568
H           8.01598         1.20804        -0.60833
H           5.61556        -0.54093         0.15608
H           7.33793        -4.04270         2.84084
H           8.59917        -2.95587         2.08413
H           5.05095        -3.55063         2.48219

