%chk=OdC1CdCdCdCSCdCCdCCdCCdCS1.chk
%NProcShared=20
# opt freq b3lyp/6-31g(2df,p)

Title Card Required 

0  1
O           5.13626         0.75145        -1.17589
C           6.64927         0.48473        -1.03952
C           4.85935        -0.03553         0.08252
C           4.73113        -0.67579         1.28468
C           5.87985        -0.64274         1.26369
C           7.13437        -0.65145         1.22326
S           8.19954         0.28484         0.45418
C           9.80597         0.10251         0.35044
C          10.75557         0.73728        -0.30866
C          12.07610         0.49151        -0.11726
C          12.79233         1.54180        -0.45458
C          14.21358         1.21300        -0.64448
C          14.59431         2.23372        -1.51053
C          13.66665         0.87970        -2.19717
C          11.69050         0.76153        -2.38006
S           9.16663         0.78017        -2.02602
H           3.52272        -0.43734         0.92258
H           7.62252        -1.16556         1.93207
H          10.15683        -0.53354         1.04433
H          10.70063         1.51292        -1.17711
H          12.54744        -0.18197         0.46382
H          12.12958         2.32035        -1.35029
H          14.88081         0.44912        -0.14797
H          14.70957         2.65010        -2.68151
H          15.29799         0.91088        -1.81411
H          13.15500         1.28085        -2.82328

