%chk=OdC1CdCCdCCdCCdC[SH]dNCCdC1.chk
%NProcShared=20
# opt freq b3lyp/6-31g(2df,p)

Title Card Required 

0  1
O           4.49898        -0.05124         0.41755
C           6.10139         0.01341         1.32700
C           3.98972         0.02982         1.46307
C           5.25360         0.06117         1.76637
C           5.14915         0.21549         3.07054
C           6.34879         0.01441         3.25730
C           7.11860         0.22727         4.22999
C           8.36427         0.23721         4.36091
C           9.14151         0.31662         5.45930
C          10.37997         0.30844         5.65021
S          11.19312         0.49237         7.09990
N          12.59692         0.43793         6.73158
C          12.02283         0.27158         4.82480
C          10.24489         0.14601         3.15744
C           8.45647         0.06412         2.06819
H           2.74533         0.08669         2.19746
H           5.66847        -0.06658         0.04693
H           4.48633         0.20079         3.77842
H           7.24901         0.25145         3.08114
H           6.68403         0.29724         5.06560
H           8.82617         0.20087         3.51349
H           8.80443         0.38989         6.35176
H           9.98654         0.33146         4.74678
H          11.35610        -0.67237         7.61433
H          12.99585        -0.19685         6.15517
H          13.00105         0.93148         6.06763
H          11.68945         0.19899         3.77774
H           7.45317        -0.00510         0.94956

