%chk=Odc1sc2cqccc3ccnc-3ccc1OrdNCd2.chk
%NProcShared=20
# opt freq b3lyp/6-31g(2df,p)

Title Card Required 

0  1
O           0.51101         1.43831         0.13012
C           1.60539         1.15736         0.56661
S           3.15768         1.76147        -0.21710
C           4.61980         1.33745         0.69206
C           5.37642         1.80799         1.87101
C           5.07948         2.75829         2.90074
C           3.75827         2.86295         2.91201
C           2.77593         3.35443         3.75501
C           2.77360         4.56220         4.32776
C           1.46633         4.50015         4.96645
N           0.74667         3.43807         4.73682
C           1.51526         2.63427         3.91174
C           1.15675         1.40790         3.43007
C           1.86674         0.25872         2.68265
C           1.75568        -0.05925         1.33680
O           2.10176        -1.01541         0.43386
N           6.34483         0.97124         1.63758
C           5.66750         0.52245         0.47451
H           5.76653         3.12655         3.64836
H           3.21415         2.32355         2.17643
H           3.49774         5.35645         4.30367
H           1.17257         5.34147         5.61439
H           0.17350         1.06042         3.76266
H           2.15655        -0.50423         3.38178
H           2.74343        -1.74292         0.52183
H           5.97996        -0.19726        -0.27049

