%chk=OdC1CdC2CdNCdc3ccccc3dNC1dC2.chk
%NProcShared=20
# opt freq b3lyp/6-31g(2df,p)

Title Card Required 

0  1
O           1.41682         0.21187        -0.32785
C           2.47823         0.72863        -0.22363
C           3.13438         1.19708         1.03479
C           4.43227         0.78711         0.77563
C           5.81725         1.39041         0.60216
N           5.96305         2.61260         0.81332
C           6.81293         3.27973        -0.01307
C           6.28060         4.42068        -0.40946
C           7.20898         5.60121        -0.21690
C           6.85779         6.84879         0.11390
C           5.43029         7.03433         0.05299
C           4.47764         6.04355        -0.25023
C           4.68862         4.25762        -0.56603
N           3.81198         3.11463        -0.87490
C           3.65234         1.39365        -1.14604
C           4.36084         0.30861        -0.57948
H           2.70378         2.21547         0.91005
H           6.53259         0.81737        -0.06832
H           7.88296         3.22959         0.04226
H           8.28137         5.44125        -0.25508
H           7.61450         7.66064         0.27700
H           5.27875         8.12823         0.15596
H           3.50545         6.49533        -0.39510
H           4.40664        -0.82403        -0.35058

