%chk=Odc1sc2cncccccccnc1-2.chk
%NProcShared=20
# opt freq b3lyp/6-31g(2df,p)

Title Card Required 

0  1
O           4.85202         0.62112         0.54933
C           6.39991         0.96576         0.93086
S           4.12578         1.35366         1.36030
C           6.27426         1.54721         1.57458
C           5.54224         2.26566         2.36994
N           6.72273         2.31176         2.42099
C           7.35060         2.97047         3.15022
C           8.66358         2.94212         3.11884
C           9.14496         3.74460         4.00725
C          10.39909         3.75095         4.01427
C          11.45028         4.33954         4.66588
C          13.24052         4.10455         4.40573
C          11.97062         3.56852         3.81231
N          10.17848         2.57964         2.71755
C           8.39683         1.81481         1.87082
H           4.82107         2.69629         2.84668
H           6.96164         3.53822         3.77877
H           9.59528         1.90429         1.96989
H           9.12858         4.39665         4.72911
H          11.45033         2.78689         2.94699
H          11.39585         5.07499         5.48009
H          14.07915         3.66788         3.92231
H          12.80608         4.61342         4.96909

