%chk=OdC1CdCCdC2CqOrdC2NdNCdCCdCCdCCdCCdCdNC1.chk
%NProcShared=20
# opt freq b3lyp/6-31g(2df,p)

Title Card Required 

0  1
O           2.05359         1.25856        -1.36120
C           3.19838         1.89101        -2.09363
C           3.26818         0.41735        -0.42621
C           4.13681        -0.56335         0.66900
C           4.94273        -1.59965         1.82639
C           6.27955        -1.62655         1.85592
C           7.32248        -2.16626         2.45848
O           8.64703        -2.48328         2.81237
C           7.35040        -1.06034         1.22403
N           6.63156        -0.06927         0.11765
N           7.15601         0.74005        -0.78569
C           6.43968         1.57846        -1.72290
C           7.05440         2.38338        -2.62026
C           6.46017         3.22985        -3.56639
C           7.08701         3.98783        -4.41814
C           6.48238         4.77760        -5.29301
C           7.13306         5.53074        -6.10396
C           6.28099         6.46287        -6.64617
C           6.80958         7.15756        -7.87260
C           5.31272         7.07077        -8.14076
C           4.55483         5.65405        -7.16857
N           4.12920         4.73617        -5.69895
C           3.71501         3.44218        -3.86810
H           2.61407        -0.58816         0.69816
H           4.91454        -0.17165         0.23184
H           4.52531        -2.28136         2.58694
H           9.00799        -3.10483         3.50614
H           5.36031         1.59058        -1.74163
H           8.12451         2.40862        -2.64803
H           5.44287         3.23335        -3.57275
H           8.10395         4.06475        -4.49733
H           5.54118         4.55294        -4.97610
H           8.12335         5.71376        -6.34854
H           4.84679         6.50527        -5.97700
H           7.90622         7.40709        -8.24619
H           4.99680         8.18856        -9.12444
H           4.10293         3.07590        -2.48867
H           3.41379         2.11773        -3.51893

