%chk=Odc1ccc2cqc3c1CCdC3rNdCCdCCCd[C]2.chk
%NProcShared=20
# opt freq b3lyp/6-31g(2df,p)

Title Card Required 

0  2
O           2.56250        -0.65107         0.27669
C           3.81505        -0.47398         0.19921
C           3.65156         1.28190        -0.56894
C           4.89985         2.00664        -0.88610
C           6.30662         3.21427        -1.41447
C           6.85880         1.87180        -0.82711
C           7.04838         0.20179        -0.09642
C           5.77750        -1.01090         0.43411
C           6.34983        -2.30624         1.00081
C           7.25459        -1.34779         0.58149
C           5.98917        -0.48187         0.20266
N           7.77763         2.59419        -1.14303
C           8.96503         2.70318        -1.19068
C           9.46852         3.89340        -1.70938
C          10.76270         4.03898        -1.77473
C          11.17569         5.74567        -2.52126
C           9.70754         5.39022        -2.37107
C           7.90271         4.39689        -1.93441
H           2.60155         1.71463        -0.75829
H           4.65641         0.96814        -0.43173
H           5.93817        -2.24132         1.98990
H           5.93817        -2.98858         0.28183
H           8.37307        -1.27937         0.55156
H           5.83954         0.46097        -0.20982
H           9.58926         2.01067        -0.88783
H           8.48757         5.39431        -2.36354
H          11.58914         3.51063        -1.54408
H          11.31973         6.73845        -1.91312
H          11.31997         5.97254        -3.66384
H          11.29656         5.29671        -2.32596

