%chk=Odc1cc2cqco1rCdCCdCCdNCdCCdC2.chk
%NProcShared=20
# opt freq b3lyp/6-31g(2df,p)

Title Card Required 

0  1
O           1.25052         0.21487         0.01336
C           2.66953         0.22870        -0.04434
C           4.71345         1.07825        -0.19323
C           6.72124         0.81900        -0.33465
C           5.15330        -0.00206        -0.34699
C           4.35944        -1.07217        -0.04681
O           3.00096        -1.09983        -0.03425
C           6.57713        -0.16651        -0.67221
C           7.16582        -1.26821        -0.69149
C           8.38984        -1.56604        -1.08074
C           9.07314        -2.55353        -0.97375
C          10.15032        -2.32072        -1.78480
N          10.89246        -3.44181        -1.47637
C          11.58347        -2.51295        -2.28860
C          12.23984        -2.81874        -1.27959
C          10.81540        -1.07262        -0.70390
C           9.08090         0.08629        -0.58869
H           3.25551         1.87841         0.15654
H           4.87546        -1.94224         0.13256
H           7.64065         0.21292        -1.25263
H           6.60941        -2.00832        -0.48659
H           9.49837        -0.92523        -1.55489
H           8.69261        -3.38506        -0.85665
H          10.63671        -0.65287        -2.11060
H          12.97416        -1.74104        -2.28070
H          12.81534        -4.43798        -1.65785
H          12.37582        -1.87132        -1.05511
H           8.22595         1.42681        -0.95255

