%chk=OdC[C]dCd[SH]CdCC1dCCdCCdCCdC1.chk
%NProcShared=20
# opt freq b3lyp/6-31g(2df,p)

Title Card Required 

0  2
O           1.04788        -0.24547         0.02924
C           2.23393         0.04382         0.05910
C           3.31908        -0.87176        -0.15272
C           4.47652        -1.21589        -0.19124
S           6.05670        -1.34416        -0.04051
C           6.50520        -0.00022        -1.15593
C           7.81058         0.28720        -1.35581
C           8.29629         1.46791        -2.14957
C           7.69828         2.62394        -1.81870
C           7.74364         4.01223        -2.16391
C           8.46222         4.79002        -2.96710
C           9.47988         4.53835        -3.93234
C          10.05255         3.42708        -4.38831
C           9.99861         2.03724        -4.03390
C           9.35064         1.27428        -3.14135
H           2.61852         1.05546         0.26037
H           6.32779        -2.40482        -0.76228
H           5.75664         0.63994        -1.62037
H           8.58976        -0.31400        -0.88651
H           6.93432         2.53496        -1.04271
H           6.98361         4.55978        -1.59822
H           8.20759         5.85326        -2.91828
H           9.81745         5.46469        -4.40695
H          10.75612         3.60334        -5.20831
H          10.69751         1.48204        -4.67036
H           9.67175         0.22748        -3.17670

