%chk=OdCC1dNNdCCdCCdCC2dNC1dNCdNCdCCdCCdC2.chk
%NProcShared=20
# opt freq b3lyp/6-31g(2df,p)

Title Card Required 

0  1
O           1.92151        -1.94996        -0.40186
C           2.91597        -2.81116        -0.58889
C           4.09077        -4.57631        -0.97223
N           4.58572        -3.41615        -0.72028
N           5.32187        -2.38882        -0.49717
C           6.55469        -2.59132        -0.54115
C           7.23878        -3.80698        -0.80515
C           8.56733        -3.66681        -0.77125
C           9.43873        -4.67948        -1.00175
C          10.24888        -5.65858        -1.20362
C           8.86312        -7.06361        -1.51242
N           6.93576        -7.07866        -1.51568
C           5.08092        -6.51624        -1.39354
N           4.08952        -7.93358        -1.70134
C           3.54277        -9.70621        -2.08631
N           4.21353       -11.02615        -2.37297
C           5.36193       -10.49635        -2.25791
C           6.63045       -10.55210        -2.27002
C           7.19625        -9.33871        -2.00650
C           8.47642        -9.14934        -1.96538
C           8.83516        -7.62147        -1.63356
C          10.22788        -7.77430        -1.66675
H           3.34293        -1.41236        -0.28511
H           7.07850        -1.67861        -0.34293
H           6.67182        -4.70946        -1.00115
H           9.11824        -2.80605        -0.58778
H           8.66762        -5.19516        -1.10663
H          11.02260        -4.64759        -0.98770
H           2.48954       -10.38503        -2.23374
H           5.21044        -9.50199        -2.04196
H           7.13068       -11.40890        -2.45609
H           6.43015        -8.60857        -1.84794
H           9.17564        -9.97148        -2.14392
H           7.93469        -6.15423        -1.31491
H          11.00776        -8.62160        -1.85076

