%chk=OdCdNC1dCCdCCdCSNCdCCSSSS1.chk
%NProcShared=20
# opt freq b3lyp/6-31g(2df,p)

Title Card Required 

0  1
O           2.60831         0.05055         0.49745
C           3.91285         0.20996         1.19881
N           5.34330         0.37011         1.90372
C           7.10368         0.63746         3.07977
C           6.53596         0.26381         1.43593
C           6.83057         0.57473         2.80377
C           8.25664         0.34736         1.80003
C           9.25674         0.53214         2.61584
C          10.88180         0.69895         3.34996
S          10.62074         1.28399         5.92434
N          11.52949         1.09509         5.09352
C          12.50913         1.40961         6.47725
C          13.91706         1.38006         6.34720
C          15.74718         1.57824         7.21917
S          17.57017         1.28658         5.93588
S          15.69905         1.19637         5.53883
S          12.91104         0.91176         4.28654
S           9.57117         0.92669         4.35267
H           6.46018         0.00900         0.31505
H           5.52614         0.73074         3.49035
H           8.53133         0.14203         0.90273
H           8.18208         0.81928         3.87994
H          10.58035         0.45994         2.29883
H          12.13967         0.77064         3.66585
H          13.16932         1.60237         7.32529
H          14.40131         1.04593         4.87708
H          15.69252         0.71784         7.95940
H          15.69252         2.67407         7.51480

