%chk=OdCd[SH]C1dCCdCdCdCOCdCdC1.chk
%NProcShared=20
# opt freq b3lyp/6-31g(2df,p)

Title Card Required 

0  1
O           1.62789        -0.13908         0.02072
C           2.76079        -0.49437        -0.10481
S           4.39227        -0.58489        -0.32501
C           5.46533        -2.46389        -0.56100
C           6.22619        -1.98793         0.44083
C           6.67141        -2.96353         1.36670
C           7.98530        -3.02051         1.46461
C           9.13138        -3.06248         1.29561
C          10.30316        -3.44589         0.83929
O          10.16786        -4.72222         0.36859
C           9.50348        -4.89800        -0.94519
C           8.18435        -4.25648        -1.03198
C           6.73340        -3.69447        -1.12438
H           4.64950         0.21337         0.77244
H           6.67234        -0.99380         0.31187
H           6.05508        -3.87538         1.31772
H          11.26023        -3.30320         1.31920
H          10.79388        -5.07574        -0.93353
H           5.95324        -4.45301        -0.78968

