%chk=OdCNdS1NdCCSCqdSrCdCS1.chk
%NProcShared=20
# opt freq b3lyp/6-31g(2df,p)

Title Card Required 

0  1
O           2.05394        -0.26959         0.75030
C           3.29275        -0.08404         0.87350
N           4.15218        -0.16038         2.04438
S           5.68367        -0.63274         1.94926
N           5.24114        -2.13997         2.32389
C           6.40773        -2.78812         2.21148
C           6.68945        -3.71712         3.28031
S           8.22016        -4.51961         2.75850
C           8.94073        -4.19631         4.28861
S           8.49833        -5.01057         5.69761
C           9.71829        -2.92777         4.06901
C           8.92822        -1.87868         4.51860
S           7.33626        -0.63194         3.86037
H           3.68929         0.38141        -0.06354
H           7.19462        -2.36569         1.58108
H           5.94321        -4.47102         3.42565
H           6.68392        -3.13225         4.23431
H          10.70790        -3.27655         4.52409
H           9.07054        -1.90029         5.63294

