%chk=OdCNC1dCCdCCdCC2dS1[SH]d[SH]2.chk
%NProcShared=20
# opt freq b3lyp/6-31g(2df,p)

Title Card Required 

0  1
O           1.19270        -0.23852        -0.28909
C           2.43469        -0.15480        -0.28563
N           3.27370        -0.87393        -1.12093
C           4.66564        -0.94652        -0.99210
C           5.21814        -0.89764         0.22616
C           6.62329        -0.73403         0.34936
C           7.17034         0.38977        -0.14133
C           6.38768         1.51865        -0.73524
C           5.57331         1.58710        -1.84472
C           5.33348         0.44790        -2.92104
S           5.87374        -1.22919        -2.53558
S           7.52759         0.24623        -3.11560
S           6.34494         0.13861        -4.50272
H           2.93810         0.55829         0.38395
H           2.79855        -1.43759        -1.81403
H           4.62896        -0.85533         1.13870
H           7.18227        -1.58519         0.72786
H           8.25879         0.44766        -0.14519
H           6.57764         2.42605        -0.16631
H           5.13813         2.54075        -2.11965
H           8.53628         0.13929        -3.95780
H           6.84058        -1.12883        -4.62577

