%chk=OdNC1dC2NdNNdC2SCdCCdC1.chk
%NProcShared=20
# opt freq b3lyp/6-31g(2df,p)

Title Card Required 

0  1
O           1.21999        -0.15815         0.29769
N           2.23130        -0.51606        -0.32782
C           3.45216        -0.17929         0.16562
C           4.33410        -1.18182         0.50497
N           5.11770        -1.27246         1.67243
N           6.34407        -1.01695         1.46292
N           6.54846        -0.68578         0.10455
C           5.40610        -0.91791        -0.46385
S           5.04675        -0.81952        -2.18544
C           5.95973         0.65064        -2.54335
C           5.13874         1.69062        -2.32443
C           4.88688         2.08484        -0.74383
C           4.01092         1.25254        -0.05082
H           6.88336         0.68317        -1.94214
H           4.61021         2.16446        -3.17949
H           5.60621         2.68522        -1.34046
H           3.80099         1.44890         1.01212

