%chk=ONdc1cccccc2cnncnc-2s1.chk
%NProcShared=20
# opt freq b3lyp/6-31g(2df,p)

Title Card Required 

0  1
O           1.44387        -0.49975         0.45306
N           3.08683        -1.03928         1.05128
C           3.93743        -2.06550         2.18914
C           4.70984        -0.92385         0.92330
C           5.74395        -1.37402         1.42244
C           7.03662        -1.33759         1.38204
C           7.71355        -2.05546         2.17800
C           9.00907        -2.19219         2.32960
C           9.33846        -3.02054         3.24805
C          10.81557        -2.94075         3.15959
N          11.54388        -3.58770         3.87691
N          12.42487        -4.13154         4.47991
C          11.28656        -4.71266         5.12425
N           9.41321        -4.50380         4.89266
C           8.11485        -3.75387         4.06116
S           5.67160        -3.23440         3.48518
H           1.12353         0.23582        -0.36252
H           4.78855        -0.16721         0.08435
H           5.54941        -2.01012         2.12772
H           7.38120        -0.70983         0.68600
H           7.36787        -2.67966         2.87010
H           9.56289        -1.61571         1.69041
H          11.40503        -2.34685         2.50108
H          12.28543        -5.34230         5.82238

