%chk=Sc1ccccc2cqsc1rdNCdCCdCCd2.chk
%NProcShared=20
# opt freq b3lyp/6-31g(2df,p)

Title Card Required 

0  1
S           2.13538        -0.23982        -0.32046
C           4.07638         0.15236         0.10172
C           3.87488         1.11291         1.13577
C           5.04871         1.49834         1.55068
C           5.67580         2.36892         2.48786
C           7.01197         2.46646         2.59283
C           8.50205         2.78470         2.93542
C           8.97114         1.64203         1.70531
S           7.64086         0.33008         0.29307
C           5.50889        -0.25392        -0.33566
N          10.33132         1.74757         1.81919
C          11.21922         2.60153         2.73817
C          11.34911         3.64705         3.86315
C          12.76773         3.85600         4.08886
C          11.50647         4.10863         4.36156
C           9.46936         3.67960         3.89912
H           1.18005         0.54631         0.52581
H           2.92589         1.45984         1.50923
H           5.76845         0.99394         1.00769
H           4.85812         2.81025         2.96295
H           7.14717         1.74871         1.82023
H           5.28599        -1.02333        -1.16393
H          12.24570         2.36093         2.47924
H          10.35318         4.63088         4.92214
H          13.63691         3.41731         3.61630
H          11.99058         4.93743         5.25304
H           8.76552         4.26375         4.52771

