%chk=SC1dCCdCCdCCdCCdNNdCCdCS1.chk
%NProcShared=20
# opt freq b3lyp/6-31g(2df,p)

Title Card Required 

0  1
S           3.97512         0.06347        -0.89484
C           6.64846         0.05974        -1.52678
C           4.64044         0.05833        -1.76581
C           5.87116         0.06097        -1.31801
C           5.90597         0.05061        -3.07218
C           7.51710         0.05175        -2.87942
C           7.92727         0.04402        -4.18771
C           9.82631         0.04250        -4.44557
C          10.15113         0.03509        -5.69980
C          10.41724         0.04261        -4.42634
N          11.55346         0.03426        -5.84013
N          13.33664         0.04091        -4.71325
C          12.91301         0.02876        -6.77054
C          13.64010         0.03841        -5.13709
C          11.87659         0.04355        -4.26794
S           9.31473         0.05319        -2.63513
H           1.89952         0.06228        -1.09694
H           3.16746         0.05431        -2.44502
H           5.70909         0.06863        -0.02119
H           5.01892         0.04791        -3.52916
H           8.47899         0.06051        -1.39616
H           7.20854         0.03987        -4.89069
H          10.74866         0.05129        -2.95759
H           9.25017         0.03368        -5.93762
H          11.80887         0.05081        -3.03891
H          13.87658         0.02285        -7.77095
H          15.22468         0.03459        -5.78404
H          13.10951         0.03534        -5.65694

