%chk=Sdc1cccccccccnc2cc-2c1.chk
%NProcShared=20
# opt freq b3lyp/6-31g(2df,p)

Title Card Required 

0  1
S           2.93156         0.48619        -0.25740
C           5.41189         1.29686        -0.72382
C           3.31502         1.25636        -0.70207
C           4.73959         1.30556        -0.73031
C           5.35567         2.65771        -1.50515
C           6.43946         2.96601        -1.69841
C           7.69857         3.83873        -2.17661
C           8.81111         2.94251        -1.73048
C           8.79097         4.20718        -2.40511
C          10.85352         4.19555        -2.39955
C          11.20761         5.83079        -3.34206
N          12.71993         5.70648        -3.27030
C          11.17185         5.32891        -3.05190
C          12.24789         4.59646        -2.58686
C           9.96735         3.44514        -2.04437
C           7.79282         2.33594        -1.27233
H           2.74537         2.01603        -1.14024
H           5.98297         0.26429        -0.12930
H           4.77157         3.15153        -1.79465
H           7.22159         1.45752        -0.82346
H           6.92448         4.28209        -2.44515
H           9.51445         2.40584        -1.33604
H           8.98678         5.12676        -2.93572
H          11.66365         3.53449        -2.01678
H          11.02159         6.77201        -3.88530
H          13.93519         5.57297        -3.19321
H           6.25681         1.41384        -0.79257

