%chk=SdC1CdCCdCNdNCdCCdCS1.chk
%NProcShared=20
# opt freq b3lyp/6-31g(2df,p)

Title Card Required 

0  1
S           3.51964         0.07954         0.07536
C           5.35219        -0.96062        -0.55865
C           3.91491        -1.45011        -0.85725
C           5.36782        -1.28659        -0.75703
C           5.59948        -2.60807        -1.56343
C           6.74674        -3.08114        -1.85170
N           6.94040        -4.16490        -2.51390
N           8.07758        -4.12271        -2.48928
C           9.26182        -4.40637        -2.66124
C          10.04915        -3.00296        -1.78942
C          10.49936        -4.19725        -2.52304
C           9.63139        -2.82894        -1.66285
S           7.89188        -1.33593        -0.80573
H           3.03643        -2.06185        -1.23061
H           6.14765        -0.00862         0.02289
H           4.77819        -3.14895        -1.89389
H           7.76716        -2.79333        -1.67565
H           9.11857        -5.37703        -3.25475
H          11.52917        -2.77250        -1.66117
H          10.85253        -5.37824        -3.25049
H          11.04004        -3.79572        -2.33813

