%chk=SdC1CdCCdCCdCC2dCCdCCdCCdS2S1.chk
%NProcShared=20
# opt freq b3lyp/6-31g(2df,p)

Title Card Required 

0  1
S           3.48967        -1.47443         0.72530
C           4.59482        -1.50804        -0.68662
C           3.79110        -0.69931        -1.65795
C           4.61099         0.19016        -2.02141
C           5.32789        -0.34684        -3.12955
C           6.59834        -0.17625        -2.99427
C           7.40726        -0.59505        -4.02561
C           8.70652        -0.50634        -3.76369
C           9.27672        -1.63637        -4.30783
C           9.13818        -1.61389        -5.68853
C          10.01747        -1.91949        -6.83129
C           9.95565        -3.14198        -7.36437
C           9.14936        -4.16569        -6.71855
C           8.96095        -4.52833        -5.41740
C           9.39792        -4.12380        -3.99263
S           8.29725        -2.92476        -2.88045
S           6.29680        -2.73878        -1.32640
H           2.97196        -1.21312        -2.20077
H           5.28330         0.65048        -1.25255
H           4.87869        -1.11554        -3.78967
H           7.11667         0.07053        -2.05567
H           6.96409        -1.36400        -4.69847
H           9.24269        -0.16503        -2.88902
H           8.53269        -0.79447        -6.11551
H          10.46414        -1.12695        -7.45897
H          10.38672        -3.33449        -8.36425
H           8.52546        -4.65984        -7.47078
H           8.43025        -5.45238        -5.30887
H          10.52890        -3.99868        -3.91282

