%chk=Sdc1ccc2cqcc1rdCCdCCCCSCSCdCd2.chk
%NProcShared=20
# opt freq b3lyp/6-31g(2df,p)

Title Card Required 

0  1
S           1.13577         0.03543         0.08319
C           3.18726        -0.21600        -0.10832
C           4.71966        -1.52648        -1.10652
C           6.62347        -2.28341        -1.68307
C           8.66701        -3.51674        -2.62251
C           7.41772        -1.99652        -1.46455
C           6.63913        -0.32651        -0.19249
C           4.91862         0.47594         0.41873
C           7.97044        -3.05686        -2.27221
C           9.82180        -2.57129        -1.90236
C          10.17150        -3.47096        -2.58764
C          11.91092        -3.52118        -2.62589
C          11.57248        -5.36834        -4.03288
C          12.70585        -4.30228        -3.22086
S          12.28255        -6.57929        -4.95527
C          14.35655        -6.15291        -4.63048
S          14.83552        -7.00160        -5.27696
C          12.95590        -5.34688        -4.01654
C          10.86681        -4.46995        -3.34858
H           3.05329        -1.69067        -1.23159
H           5.56931        -1.09508        -0.77792
H           8.15842        -0.58779        -0.39152
H           3.67747         1.42826         1.14413
H           7.16750        -3.81749        -2.85160
H           9.76523        -1.88951        -1.38304
H           9.78845        -4.98225        -3.73880
H          11.77750        -3.97211        -1.69446
H          11.77750        -2.74301        -3.30807
H          11.50826        -4.78748        -4.87488
H          11.50826        -6.02576        -3.24920
H          13.74413        -5.05393        -2.62290
H          13.74413        -3.92549        -4.10436
H          15.82090        -6.48589        -3.83124
H          15.82090        -5.47084        -5.16384
H          14.88280        -5.30633        -3.98565

