%chk=SdC1CdCCdCCdCCdCS2dCCdCC2dCN1.chk
%NProcShared=20
# opt freq b3lyp/6-31g(2df,p)

Title Card Required 

0  1
S           3.34669        -1.07313        -0.37319
C           5.15810        -1.61549        -1.42592
C           3.91001        -0.21206        -1.80501
C           5.07673         0.35881        -1.68772
C           5.66630         0.10383        -2.92177
C           6.98985         0.19023        -2.88336
C           7.71232        -0.09226        -4.06592
C           9.05737        -0.05162        -4.00075
C           9.83103        -0.19631        -5.18358
C          11.12697        -0.46085        -4.99329
S          11.53726        -1.72866        -5.95433
C          11.45380        -0.35746        -7.49604
C          10.76233        -1.29169        -8.28915
C          10.11819        -2.35413        -7.26023
C           9.35870        -2.43520        -5.40795
C           8.26490        -2.31237        -3.82349
N           6.78528        -2.04294        -2.51890
H           3.01906        -0.39227        -2.50306
H           5.51050         0.45143        -0.66003
H           5.06185        -0.50200        -3.65387
H           7.52534         0.04436        -1.89938
H           7.16958        -0.66117        -4.87622
H           9.58155        -0.31590        -3.04873
H           9.27043        -0.62996        -6.09823
H          11.74013        -0.57348        -4.14886
H          11.64516         0.76184        -7.68948
H          10.73476        -1.01015        -9.48498
H          10.74928        -3.13254        -8.20367
H           9.55357        -2.66103        -3.73822
H           6.77208        -1.51592        -1.28952

