%chk=SdCC1dNCdCCdCCdC2NdNSCdCC21S.chk
%NProcShared=20
# opt freq b3lyp/6-31g(2df,p)

Title Card Required 

0  1
S           3.18188         0.60787        -0.71781
C           5.26265         0.26143        -0.86379
C           7.08281         0.93760        -1.68247
N           5.87290         1.55454        -1.18151
C           5.68356         2.81271        -1.11296
C           6.91439         3.00858        -0.81306
C           7.33630         3.94980        -1.69354
C           8.51658         4.09279        -1.20831
C           9.20304         4.72494        -2.16949
C          10.00999         3.76322        -2.45613
N          11.31021         4.84014        -2.67451
N          12.07524         5.42708        -3.56768
S          12.94024         4.37852        -4.45270
C          12.24318         2.83374        -3.67408
C          10.98187         2.05414        -2.97514
C           9.11561         1.96788        -2.15914
S          10.57620         2.10221        -0.39193
H           4.45434        -0.54230        -0.03458
H           4.87038         3.27024        -1.64901
H           7.64972         2.06172        -0.35785
H           6.84425         4.56461        -2.40660
H           8.83489         3.24456        -0.54381
H           9.20850         5.65786        -2.68051
H          13.27774         2.38201        -4.00700
H          11.98765         1.60886        -2.49066
H          11.60233         1.27968        -0.19465

