%chk=SdCC1dCCdCCdCd[SH]CSC[SH]dCdC1.chk
%NProcShared=20
# opt freq b3lyp/6-31g(2df,p)

Title Card Required 

0  1
S           1.87643         0.35496        -0.43206
C           3.85024         0.84391        -0.40850
C           5.51223         1.69559        -1.13408
C           5.22107         0.38985        -1.40036
C           5.63190         0.19877        -2.72374
C           6.97102         0.22798        -2.76716
C           7.66663         0.87098        -3.87036
C           8.96626         0.92033        -3.90585
S          10.53217         0.61642        -3.93154
C          11.10528         2.19195        -3.50479
S          13.12596         2.37939        -3.40753
C          13.13518         4.42182        -2.55171
S          10.96255         4.02623        -2.01797
C           8.98267         3.04529        -1.96119
C           7.35430         2.51700        -1.73760
H           3.65650        -0.06101         0.54214
H           5.42317        -0.15725        -0.42272
H           5.00037         0.73111        -3.46636
H           7.45083         0.25014        -1.74469
H           7.08300         1.31812        -4.66829
H          10.98395         0.81004        -5.12516
H          10.89726         2.00302        -2.33371
H          10.71005         3.17275        -4.07965
H          13.37528         4.54814        -1.48129
H          13.16362         5.22832        -3.34858
H          12.49802         3.60712        -2.81827
H           6.34291         2.51106        -2.56843

