%chk=SdCdNC1dCCdCCdCSCd[SH]1dS.chk
%NProcShared=20
# opt freq b3lyp/6-31g(2df,p)

Title Card Required 

0  1
S           1.40021         0.11508        -0.00015
C           2.92333         0.55503         0.43195
N           4.08832         0.69899         0.57334
C           5.25042         1.40988         1.27153
C           6.29368         0.81202         0.68435
C           7.36088         1.31613         1.17946
C           8.69347         1.31631         1.17963
C           9.07584         2.23711         2.08399
C          10.27105         2.60735         2.44761
S           9.97074         3.95418         3.77040
C           7.70338         3.97923         3.79499
S           5.84357         2.94568         2.77990
S           4.01419         2.87484         2.71032
H           6.37380         0.05200        -0.06210
H           7.09184         1.99644         1.84761
H           9.18444         0.69401         0.56844
H           8.24045         2.70332         2.54187
H          11.08498         2.08288         1.93251
H           8.86985         3.60707         3.42948
H           5.00827         3.69851         3.51929

