%chk=SdSdC1CdCCdCCdCNdC1.chk
%NProcShared=20
# opt freq b3lyp/6-31g(2df,p)

Title Card Required 

0  1
S           1.32904        -0.02769        -0.24921
S           3.06784        -0.10977        -0.87187
C           4.10155        -0.32224        -2.48342
C           5.19751        -0.19354        -1.50718
C           6.15288        -0.30674        -2.36584
C           7.43467        -0.33094        -2.54937
C           7.52037        -0.49784        -3.81507
C           8.44258        -0.61851        -4.73078
C           7.50499        -0.75546        -5.76983
N           5.67541        -0.73273        -5.59764
C           4.49600        -0.57805        -4.42413
H           5.58633        -0.06739        -0.55029
H           5.66619        -0.41947        -3.22140
H           8.26807        -0.25590        -1.98038
H           6.61150        -0.55754        -4.26615
H           9.45441        -0.54906        -4.20385
H           8.28601        -0.87368        -6.66626
H           3.41187        -0.60832        -4.65352

