%chk=SN1CdCCdCCdCCdCSCdCNdCSCdN1.chk
%NProcShared=20
# opt freq b3lyp/6-31g(2df,p)

Title Card Required 

0  1
S           4.90013         0.91830        -1.49406
N           7.71952         1.27129        -2.11461
C           5.44235         1.13554        -1.87597
C           6.44450         0.55030        -0.84713
C           6.03887         1.58557        -2.66710
C           7.18054         1.84753        -3.12762
C           7.89889         2.31504        -3.94950
C           8.88037         2.04312        -3.47147
C           9.83493         2.70382        -4.63297
C          11.07585         2.77496        -4.75803
S          11.98295         3.49309        -6.02048
C          13.43832         3.31639        -5.70986
C          14.40290         3.86619        -6.67639
N          15.56241         3.73394        -6.44390
C          16.57920         3.93657        -6.80012
S          15.08413         2.82470        -4.84547
C          12.44228         2.24006        -3.81769
N          10.28235         1.73366        -2.92744
H           2.70138         0.73556        -1.17281
H           3.54147         1.23700        -2.05434
H           5.56596         0.13143        -0.11077
H           5.09340         1.88715        -3.19727
H           8.26010         0.88158        -1.42950
H           7.15898         2.52803        -4.32394
H           9.25857         1.30482        -2.17356
H           9.35879         3.12594        -5.37504
H          11.27475         2.11651        -3.60048
H          13.80923         2.38016        -4.06397
H          14.45895         4.33267        -7.49646
H          16.77933         4.62626        -8.01258
H          14.16759         2.80581        -4.81226

