%chk=SNC1dCCdNCdCNdCCdNSCdCCdC1.chk
%NProcShared=20
# opt freq b3lyp/6-31g(2df,p)

Title Card Required 

0  1
S           2.19717         0.53100         0.01327
N           4.54649         1.74876        -0.04003
C           6.44124         3.30949        -0.10834
C           5.37419         1.65801        -0.03606
C           5.91060         2.80231        -0.08614
N           7.49264         2.08558        -0.05477
C           8.03080         3.43628        -0.11389
C           9.25623         3.33513        -0.10947
N           9.94626         4.74725        -0.17128
C          10.84127         4.34489        -0.15366
C          10.65660         6.90313        -0.26564
N          12.24679         5.58945        -0.20814
S          13.13594         7.85817        -0.30744
C          14.85116         7.93181        -0.31067
C          13.16179         6.96059        -0.26816
C          10.96557         5.71543        -0.21365
C           8.61435         4.88322        -0.17723
H           0.71235        -1.02111         0.08121
H           3.76042         0.21432         0.02714
H           5.39106         0.35111         0.02115
H           5.22975         4.08139        -0.14213
H           7.44649         5.24695        -0.19315
H           9.69893         2.61767        -0.07806
H          11.68198         4.01760        -0.13934
H          11.25722         7.54144        -0.29358
H          15.83271         6.87845        -0.26456
H          14.70165         8.15837        -0.32058
H          13.02730         6.27553        -0.23817
H           6.90308         4.39907        -0.15604

