%chk=SNC1dC2CdCCdCCqdCd[SH]CdC2rCdC1.chk
%NProcShared=20
# opt freq b3lyp/6-31g(2df,p)

Title Card Required 

0  1
S           1.33123        -0.26125         0.18877
N           3.35199        -0.57537         0.59100
C           4.32923        -1.60840         1.88678
C           5.50409        -1.49060         1.33058
C           6.36707        -0.62808         2.26726
C           7.58860        -0.78630         1.79598
C           7.97197        -1.29515         3.08601
C           9.04540        -1.96612         2.80458
C           9.02282        -3.24348         3.77368
C           8.89850        -4.21020         4.67942
S           7.41282        -4.73329         4.80662
C           6.09701        -4.56227         2.73933
C           5.98737        -3.34143         1.33021
C           7.39868        -3.19856         2.92680
C           5.62663        -2.43791         3.06300
H           0.77950         0.68184        -0.92496
H           3.55998         0.15570        -0.30039
H           6.22148        -0.88409         3.59345
H           7.74415        -0.96527         0.69616
H           7.21953        -2.03236         4.12525
H           9.77139        -1.94301         2.04675
H           7.99774        -4.57612         6.36636
H           5.79578        -4.52940         3.98815
H           6.10800        -2.05188         0.61850
H           8.77984        -3.54270         3.13937
H           4.39932        -2.62226         2.82287

