%chk=SSC1dCC2dCCdCdCCdCSSS[SH]21.chk
%NProcShared=20
# opt freq b3lyp/6-31g(2df,p)

Title Card Required 

0  1
S           1.46197         0.26911        -0.34673
S           3.56050        -0.08730        -0.64431
C           4.29970         1.14243        -1.85783
C           4.03960         2.45645        -1.94202
C           4.49887         2.58422        -3.30233
C           4.31779         3.55384        -4.17066
C           4.46733         3.11515        -5.51166
C           4.76135         3.91895        -6.41558
C           5.06793         4.66405        -7.45499
C           5.63020         3.95648        -8.55008
C           6.58714         4.53545        -9.26605
S           7.99852         3.45709        -9.09414
S           7.97071         3.11671        -6.68220
S           6.99766         1.36567        -5.32835
S           5.24305         0.95399        -3.50498
H           1.00256        -0.56551         0.66340
H           3.39405         3.09526        -1.31536
H           3.95057         4.53595        -3.91339
H           4.49840         2.03822        -5.71439
H           5.16766         5.71662        -7.29456
H           5.75260         2.87261        -8.42471
H           6.58793         5.62663        -9.44518
H           4.43406         0.09669        -4.13051

