%chk=[C-]c1c2cccc3cqOCrccqc1[nH]c2rdCd[SH]3.chk
%NProcShared=20
# opt freq b3lyp/6-31g(2df,p)

Title Card Required 

-1  1
C           1.06107         0.47552        -1.64602
C           2.32008        -0.14544        -0.95184
C           3.34734        -1.28528        -0.72776
C           3.26792        -2.62489        -0.27468
C           2.12753        -2.89603        -0.54795
C           1.36343        -4.02650        -0.64421
C           0.04912        -3.67329        -0.69040
C          -0.44975        -4.33535         0.31611
O          -0.19363        -5.78882         0.18428
C           1.14374        -6.45187        -0.00784
C          -0.08039        -3.02922         1.11336
C           0.78925        -1.38559         1.17593
C           2.12468        -0.22444         0.44259
N           3.77512         0.26062         0.34124
C           4.46728        -0.77005        -0.22855
C          -0.19262        -0.52572         0.82760
S          -0.76928        -1.57183        -0.91993
H           4.04177        -3.35688         0.02272
H           1.44002        -2.14907        -0.84815
H           1.99735        -4.69293        -0.04743
H           1.46205        -7.52436        -0.03051
H           1.65019        -6.14692         0.90985
H           1.57086        -6.17530        -0.99892
H          -1.38891        -2.94943         0.79234
H           4.28759         1.15640         0.08887
H           5.46109        -1.16311        -0.01667
H          -2.02712        -1.84721        -0.74990

