%chk=[C]1dCC2CdCCdCdCCdCCdC12.chk
%NProcShared=20
# opt freq b3lyp/6-31g(2df,p)

Title Card Required 

0  2
C           1.00737         0.09341        -0.26218
C          -0.21985         0.17963         0.01800
C           0.49586         1.68311        -0.05103
C           0.17274         2.34759        -1.34944
C           1.12381         3.22938        -1.64104
C           1.56408         3.48807        -2.98947
C           2.72773         3.97582        -3.28820
C           3.85787         4.51925        -2.99069
C           3.87485         4.63278        -1.55354
C           3.90081         3.53011        -0.69740
C           3.34747         1.85409        -0.63724
C           2.22655         0.92462        -0.44670
H          -1.33335         0.15794        -0.18096
H           0.43245         2.19704         0.91389
H          -0.38376         1.84006        -2.13076
H           1.71273         3.47419        -0.75389
H           0.85414         3.33256        -3.76122
H           4.81118         4.39430        -3.51200
H           3.68181         5.70948        -1.31612
H           5.01898         3.44706        -0.78958
H           4.24204         1.22360        -0.64861

