%chk=[C][N]C[N][C]CCCCNNO.chk
%NProcShared=20
# opt freq b3lyp/6-31g(2df,p)

Title Card Required 

0  2
C           0.67044         0.04211        -0.00101
N           2.13793         0.04570        -0.00674
C           2.75168         0.61042        -1.23030
N           4.19220         0.51778        -1.04332
C           5.09432         0.99755        -2.06911
C           6.47772         1.18649        -2.46843
C           6.82657         1.80467        -3.80389
C           8.36409         1.83046        -3.85987
C           8.88762         2.42747        -5.15246
N          10.35875         2.40388        -5.13091
N          10.84466         2.92460        -6.36307
O          12.28389         3.03403        -6.30438
H           2.43960         1.65320        -1.38280
H           2.43494         0.05406        -2.12362
H           6.94465         0.19547        -2.41670
H           6.94213         1.78933        -1.67888
H           6.42685         2.82134        -3.89577
H           6.42733         1.21556        -4.63800
H           8.74633         0.80591        -3.74337
H           8.75060         2.40447        -3.00550
H           8.52768         3.45857        -5.24707
H           8.51071         1.84353        -6.00031
H          10.64665         1.43113        -4.98521
H          10.57506         3.91670        -6.45237
H          12.52101         2.08359        -6.27963

