%chk=[CH]C1CdCCdCCdNCNCqOrCdC1.chk
%NProcShared=20
# opt freq b3lyp/6-31g(2df,p)

Title Card Required 

0  1
C           2.84377        -0.87919        -0.32233
C           4.52629        -1.83572        -0.57587
C           3.53786        -1.38521        -1.74047
C           4.61466        -0.80161        -2.22603
C           4.85417        -1.86304        -3.11534
C           6.09711        -1.83835        -3.50918
C           6.35291        -3.03427        -4.22823
N           7.48652        -2.85238        -4.72157
C           8.08923        -3.99416        -5.14888
N           9.64383        -3.45879        -4.50680
C           8.96588        -4.49378        -3.86980
O           9.70652        -4.80326        -5.65890
C           7.70886        -3.50459        -2.38344
C           6.36463        -2.70023        -1.39331
H           1.73424        -0.23104        -0.60198
H           4.44342        -0.45271        -0.19283
H           2.51078        -1.82952        -1.99896
H           5.46811        -0.32846        -1.43250
H           4.16697        -2.74487        -3.15884
H           6.92983        -1.32898        -2.88159
H           5.77659        -3.97262        -4.23410
H           8.01888        -3.97318        -6.21991
H           7.74396        -5.25901        -4.91293
H          10.44837        -4.17553        -4.34775
H           9.43399        -5.66948        -4.25055
H          10.02014        -4.13577        -6.48767
H           8.94896        -3.20004        -2.43428
H           6.37927        -2.15554        -0.33098

