%chk=[CH]C1dC[C]qCCCdOrCO1.chk
%NProcShared=20
# opt freq b3lyp/6-31g(2df,p)

Title Card Required 

0  2
C           1.20176        -0.06461        -0.10859
C           2.59676         0.07162        -0.16400
C           3.36903        -1.00995        -0.16586
C           4.71734        -0.55380        -0.00993
C           5.37437        -0.93679         1.27874
C           6.85250        -0.59697         1.28092
C           7.44825        -0.87039         2.62884
O           8.63644        -0.64995         2.87921
C           4.62851         0.89674        -0.40478
O           3.26304         1.29421        -0.12544
H           0.25502        -0.54510        -0.08135
H           3.01475        -2.02745        -0.14055
H           5.23013        -2.00721         1.47805
H           4.86587        -0.40399         2.09538
H           7.00858         0.46565         1.07104
H           7.37899        -1.18948         0.52675
H           6.77584        -1.26553         3.40619
H           4.81569         1.02195        -1.47912
H           5.32974         1.53181         0.14351

