%chk=[O]N1[CH]NCdCNNdNCdC1CS.chk
%NProcShared=20
# opt freq b3lyp/6-31g(2df,p)

Title Card Required 

0  1
O           2.54547        -0.29874        -0.42013
N           3.90233         0.21164         0.00130
C           3.42092         0.64863         1.19638
N           4.49008         0.69953         1.73834
C           5.16886         1.26771         2.70618
C           6.35529         1.22379         2.37507
N           7.52316         1.56881         2.88496
N           8.41815         0.72222         2.33970
N           8.20344         0.81351         1.02600
C           7.16448        -0.01097        -0.03917
C           5.54949        -0.23618        -0.59124
C           4.43363        -0.93267        -1.80692
S           4.40317        -1.73965        -3.35418
H           2.74318         0.02029         1.80134
H           4.97995         0.35067         0.96109
H           4.65249         1.68346         3.48398
H           6.45853         0.68661         1.47399
H           7.31410         1.78982         3.85546
H           8.39271        -0.22189        -0.04582
H           3.69928        -0.09085        -2.08512
H           3.72300        -1.63877        -1.29728
H           4.30621        -0.62610        -4.09031

