%chk=c1cccc2c3ccccc3c-2cc1.chk
%NProcShared=20
# opt freq b3lyp/6-31g(2df,p)

Title Card Required 

0  1
C           1.60846        -0.56784        -0.24368
C           2.61002         0.48472        -0.30872
C           3.66705        -0.12452         0.30725
C           4.94460        -0.33054         0.24512
C           5.16936        -1.57717         0.65438
C           6.31350        -2.11576         1.28318
C           7.34991        -1.01544         1.53716
C           8.65741        -1.04843         1.16608
C           8.91077        -2.28254         0.68655
C           7.68975        -3.35869         0.62784
C           6.11526        -3.42929         0.87935
C           4.36001        -2.70742         0.89467
C           2.72492        -2.69115         1.00858
C           1.47073        -1.35875         0.84933
H           1.93208        -1.42735        -0.83808
H           2.79634         1.32428        -0.91358
H           3.30746        -0.69716         1.13524
H           5.74859         0.32784        -0.02223
H           6.95444        -0.08183         1.91360
H           9.34127        -0.20273         1.26220
H           9.98727        -2.46886         0.46978
H           8.28799        -4.29053         0.44976
H           2.15571        -3.57315         1.34398
H           0.35112        -1.05938         0.76092

