%chk=C1dCdCCdNCdCCCCdCCdCCdCCdCCd1.chk
%NProcShared=20
# opt freq b3lyp/6-31g(2df,p)

Title Card Required 

0  1
C           5.94734        -0.95821         2.99877
C           4.61429        -0.51908         1.67745
C           3.75729         0.02905         0.02335
C           4.66032        -0.31382         1.05937
N           6.06583        -0.27478         0.94140
C           7.07896        -0.66654         2.12519
C           8.20862        -0.71529         2.27221
C           9.13954        -1.10591         3.45308
C          10.25392        -0.99826         3.12682
C          10.89880        -1.33278         4.13349
C          12.56766        -1.50270         4.65048
C          13.84969        -1.87817         5.78906
C          14.20550        -1.55539         4.80914
C          14.33445        -2.02669         6.23381
C          15.12432        -2.25367         6.91875
C          12.63532        -2.16824         6.65874
C          10.43743        -1.80225         5.55800
C           7.92792        -1.39553         4.32559
H           4.25357         0.34904        -0.94323
H           3.67022        -0.79465         2.51188
H           6.40004        -1.28587         3.99535
H           8.47819        -0.43716         1.43180
H           8.62007        -2.42155         3.82662
H           8.61966        -0.27354         4.53742
H          10.41132        -0.03703         3.08617
H          10.41128        -1.74536         2.52062
H           9.36715        -1.67287         5.15948
H          12.81964        -1.19641         3.72549
H          12.17161        -1.77229         5.46999
H          15.07438        -1.58049         4.88563
H          13.94514        -2.62252         8.03470
H          16.85159        -2.04461         6.28769
H          14.56824        -2.39946         7.35849
H          12.11573        -2.12571         6.53086
H           6.31169        -0.97844         3.07864

