%chk=C1dCCdCSC2dCCdCC2dCNdCCdC1.chk
%NProcShared=20
# opt freq b3lyp/6-31g(2df,p)

Title Card Required 

0  1
C           1.85528        -1.31584         0.28480
C           2.61194        -0.20729         0.40043
C           3.56292        -0.44393         1.38701
C           4.89632        -0.54510         1.20284
S           5.62698        -1.33192         2.53948
C           7.16482        -1.51251         1.88477
C           7.96478        -0.45568         1.73305
C           9.31329        -0.91663         1.54731
C           9.34120        -2.26962         1.54809
C           7.94705        -2.72847         1.71377
C           7.38658        -3.96368         1.73920
N           6.01290        -4.10514         2.06447
C           5.07994        -4.24659         1.13274
C           3.44291        -3.64285         0.97057
C           2.39951        -2.76693         0.60366
H           0.79681        -1.08046         0.55398
H           2.74730         0.50892        -0.41421
H           3.12888        -0.92326         2.26517
H           5.36631        -0.26055         0.27524
H           7.62199         0.55456         1.88875
H          10.13469        -0.21955         1.49744
H          10.24588        -2.85470         1.48313
H           8.06739        -4.82928         1.70801
H           5.03265        -5.35105         0.92687
H           2.97406        -4.54723         1.37883
H           2.30566        -2.87954        -0.50472

