%chk=C1dCCdCc2ccnccscc2CdCCdCCCdC1.chk
%NProcShared=20
# opt freq b3lyp/6-31g(2df,p)

Title Card Required 

0  1
C           0.71868        -0.23181         0.48248
C           2.23265        -0.10963         0.10190
C           3.39220        -0.49598         1.29049
C           4.91163        -0.61109         1.68432
C           6.11243        -1.05723         3.24060
C           6.85655        -0.74276         2.19601
C           7.28023        -1.46755         3.17535
N           8.63406        -1.05894         2.95915
C           9.27707        -1.07077         4.18363
C          10.61897        -1.32351         4.24008
S          11.16551        -1.90216         6.23132
C           9.13863        -2.47015         5.31982
C           7.39353        -1.40822         4.85319
C           5.27926        -1.34045         4.53779
C           3.51101        -1.57828         4.81028
C           1.55744        -1.61691         4.71363
C           0.48833        -1.93533         5.72784
C          -1.05313        -1.79742         5.31230
C          -1.14159        -1.19538         3.45584
C          -0.46282        -0.70432         1.94050
H           0.93653        -0.53379         1.41421
H           2.83261         0.20667        -0.87048
H           2.63457        -0.72379         2.00210
H           5.17669        -0.23469         0.50763
H           7.26652        -0.51189         1.29984
H           6.44189        -2.22294         4.49339
H           8.58076        -1.25995         5.73155
H          11.54887        -1.31555         3.77624
H          10.77674        -2.09721         5.59156
H           4.17602        -1.19951         3.54141
H           3.05933        -1.91803         5.70346
H           0.76337        -1.33621         3.89192
H           0.71048        -2.26514         6.75964
H          -1.74653        -2.98912         5.07593
H          -1.74640        -0.69280         5.82009
H          -1.50305        -1.62469         4.78087
H          -0.68907        -0.27799         0.62502

