%chk=C1dCCdC2CdCOCdCCdCNdC2CdC1.chk
%NProcShared=20
# opt freq b3lyp/6-31g(2df,p)

Title Card Required 

0  1
C          -0.27718         1.44369         0.00187
C          -1.41005         0.76008        -0.00568
C          -1.55326        -0.71398        -0.00186
C          -0.71861        -1.82669         0.02188
C          -1.57818        -2.96047        -0.00341
C          -2.81415        -2.85387         0.02683
O          -3.45076        -3.88321        -0.03708
C          -4.28288        -4.76338        -0.22368
C          -3.60259        -5.90971        -0.87239
C          -4.25756        -6.14267         0.32673
C          -2.46719        -5.79945         0.50388
N          -0.80413        -4.87660         0.17861
C           0.16016        -3.20030         0.03964
C           0.98828        -1.25417         0.01688
C           0.93687         0.51392         0.00286
H          -0.36911         2.57424         0.00316
H          -2.34027         1.32506        -0.00972
H          -2.57703        -0.84454         0.01230
H          -1.95740        -4.11125        -0.09982
H          -3.42401        -2.12334         0.00145
H          -5.08873        -4.09560        -0.03866
H          -2.92540        -7.25225        -0.46945
H          -5.75204        -6.01647         0.06237
H          -3.71516        -6.89491         0.54484
H           2.29637        -0.62100         0.00128
H           1.75803         1.63753         0.00063

