%chk=C1dCCdCC2dCCdCCdCCdC2CdCCCdNCdC1.chk
%NProcShared=20
# opt freq b3lyp/6-31g(2df,p)

Title Card Required 

0  1
C           3.06486         0.31052         1.01049
C           2.91295        -0.32168        -0.16592
C           3.26472         0.61854        -1.22148
C           4.59803         0.82084        -1.27499
C           5.31149         1.72684        -2.09559
C           4.94236         3.02825        -2.18646
C           5.54787         3.91308        -3.14971
C           5.44386         3.68842        -4.47503
C           4.73404         2.54543        -5.03610
C           5.13762         1.27193        -4.87452
C           6.33971         0.92790        -4.13224
C           6.48849         1.19525        -2.83089
C           7.75074         0.86941        -2.14820
C           7.86658         1.12359        -0.87224
C           8.86421         0.70824         0.16265
C           7.85525         0.89390         1.37033
N           6.74824         0.16686         1.38866
C           5.60145         0.32881         2.18470
C           4.22844         0.26191         1.96905
H           2.15231         0.90977         1.20556
H           3.48501        -1.24315        -0.26799
H           2.56596         1.22796        -1.77923
H           5.22098         0.20130        -0.63228
H           4.10502         3.41899        -1.61651
H           6.14044         4.73069        -2.75601
H           5.95589         4.33517        -5.17592
H           3.80467         2.75886        -5.55532
H           4.53922         0.44353        -5.24087
H           7.15479         0.49556        -4.70093
H           8.55819         0.39822        -2.70725
H           7.00493         1.62171        -0.41026
H           9.72042         1.39813         0.08668
H           9.22124        -0.31938         0.02121
H           8.04040         1.83335         1.94508
H           5.86254         0.32927         3.24812
H           3.69745        -0.01260         2.87797

