%chk=C1dCCdCCdCCCCdCCdNCdCCdCCdC1.chk
%NProcShared=20
# opt freq b3lyp/6-31g(2df,p)

Title Card Required 

0  1
C           4.93353        -2.17690        -1.06753
C           3.30039        -0.63963        -0.34432
C           3.85931        -1.39338        -0.69892
C           5.63634        -0.99268        -0.51042
C           6.47322        -2.75220        -1.33818
C           7.83259        -2.22214        -1.08881
C           8.13478        -4.52015        -2.16990
C           9.00015        -3.01291        -1.46082
C           9.50128        -3.82216        -1.84153
C          11.40260        -4.01136        -1.93054
C          11.60970        -5.30524        -2.53924
N          13.10397        -4.76987        -2.28738
C          12.28033        -5.39329        -2.58066
C          14.12337        -6.23718        -2.97767
C          14.79871        -7.33243        -3.49293
C          12.85561        -6.28265        -2.99906
C          10.11038        -4.98047        -2.38646
C           7.56431        -3.49912        -1.68956
H           2.76446        -1.28868        -0.64966
H           2.87694         0.86410         0.36310
H           2.59743        -2.14909        -1.05444
H           5.02180        -0.26058        -0.16600
H           4.74176        -3.28434        -1.58852
H           7.16717        -1.45610        -0.72843
H           7.04635        -3.68876        -2.91100
H           7.04635        -4.56102        -1.05690
H           9.13243        -3.10596        -0.49239
H           9.13243        -2.32616        -2.14995
H           8.94555        -5.31555        -2.54409
H          11.35708        -3.30203        -1.59684
H          10.73577        -6.45574        -3.08049
H          12.99128        -7.27797        -3.46731
H          15.62454        -5.79026        -2.76742
H          15.34301        -8.72639        -4.14871
H          15.13943        -6.73879        -3.21365
H          11.64020        -6.38991        -3.04952
H           5.53006        -2.46582        -1.20345

