%chk=C1dCCdNCdCCdc2ncccc2dCCdC1.chk
%NProcShared=20
# opt freq b3lyp/6-31g(2df,p)

Title Card Required 

0  1
C           2.66966        -0.26780         0.43255
C           2.60216        -0.45305        -0.88900
C           2.99615        -1.86977        -0.63079
N           4.20231        -2.19061        -0.85291
C           4.73991        -3.19906        -0.10263
C           6.00706        -3.27370        -0.21580
C           6.88546        -4.13564         0.50487
C           8.07940        -3.69321         0.78965
N           9.00668        -4.71499         1.07134
C          10.23268        -4.62941         0.70455
C          10.79534        -3.40913         0.11353
C          10.04613        -2.24921         0.17413
C           8.41112        -2.17820         0.60832
C           7.39350        -0.99360         0.67552
C           5.68874        -0.31199         0.96540
C           4.20372         0.04384         1.00921
H           1.67326        -0.58424         0.87617
H           3.32063         0.20039        -1.38880
H           2.35567        -2.45633         0.07648
H           4.18520        -3.79680         0.63527
H           6.49416        -2.51217        -0.84660
H           6.60567        -5.16939         0.65883
H          10.95195        -5.48193         0.88969
H          11.82449        -3.57476        -0.25147
H          10.61918        -1.38677        -0.15545
H           7.92023        -0.05355         0.42345
H           5.51302        -1.27638         1.48599
H           3.85928         1.09901         1.17290

