%chk=C1dCdC2CdCNCNCdCCdCCdC2N2CdNC2dCCd1.chk
%NProcShared=20
# opt freq b3lyp/6-31g(2df,p)

Title Card Required 

0  1
C           1.71660         0.06524        -0.04983
C           3.34946         0.11451        -0.31354
C           5.25978         0.08071        -0.63298
C           4.39670         0.24081        -1.55755
C           5.67879         0.27223        -1.57447
N           6.37615         0.39723        -2.70509
C           7.70009         0.47222        -2.92913
N           8.11078         0.57214        -4.14046
C           9.29000         0.75756        -4.40043
C           9.82312         0.69769        -5.62813
C          10.78333         1.42750        -4.91814
C          10.74083         0.14994        -4.74577
C           9.31232         0.08435        -2.69872
C           7.56916        -0.00486        -1.22934
N           5.83214        -0.13503         0.57244
C           4.84616         0.19951         2.41066
N           3.49027        -0.34706         3.27707
C           4.00893        -0.63519         1.45125
C           2.05300        -1.14581         1.68791
C           0.34862        -0.45998         0.66399
H           3.82481         0.33860        -2.30915
H           6.60916         0.23495        -0.41159
H           5.93499         0.47026        -3.49636
H           8.36300        -0.80049        -2.31063
H           8.40415         1.36526        -2.05980
H           7.62293         0.62242        -4.85490
H          10.50769         0.73141        -3.09999
H           9.53482         0.82571        -6.53940
H          12.20450         0.78066        -4.68869
H          11.32106         0.66466        -6.49581
H          10.91221         0.11887        -3.83258
H           4.57526         0.87267         3.96303
H           1.62380        -2.56220         2.50707
H          -0.99576         0.19816        -0.10062

