%chk=C1dCNdCCdc2cccc[nH]ccc2dC1.chk
%NProcShared=20
# opt freq b3lyp/6-31g(2df,p)

Title Card Required 

0  1
C           3.02803         0.69159        -0.73278
C           3.65848         0.89902         0.10658
N           3.00424         1.80835        -0.71776
C           4.18922         1.88468        -0.75625
C           5.11055         2.94666        -1.21915
C           6.32045         2.70120        -1.12739
C           6.92448         3.67584        -1.51337
C           8.13730         3.75241        -1.54998
C           8.49312         5.12629        -2.21815
C           9.19506         4.40103        -1.69137
N          10.15147         5.44124        -2.20704
C          11.21685         4.48045        -1.87528
C           9.76516         3.00904        -1.31761
C           7.42474         2.02110        -0.93978
C           5.48169         1.13666        -0.61113
H           1.21004         0.82487        -0.33688
H           2.95671        -0.64845         0.27843
H           5.01826         0.22705        -0.08541
H           4.36403         3.44789        -1.41929
H           6.56785         4.48154        -1.84023
H           8.76326         2.30366        -0.94141
H           8.59539         6.00295        -2.40729
H          10.72843         3.54920        -1.34318
H          10.76935         6.44351        -2.63466
H          12.91823         4.90312        -2.01281
H          10.97746         4.39876        -1.84006
H           4.26555        -0.33127         0.02335

