%chk=C1dCCdc2[nH]ccc2dCCdC2CCqdC1rCdCN2.chk
%NProcShared=20
# opt freq b3lyp/6-31g(2df,p)

Title Card Required 

0  1
C           0.63408        -0.22365         0.14741
C           1.93767         0.10527         0.42204
C           2.87424         1.18146        -0.00025
C           4.23128         1.03026        -0.08849
N           5.16047         2.08141        -0.26538
C           6.46307         1.66414        -0.13829
C           6.53141         0.32596         0.03049
C           5.14788        -0.22171         0.04254
C           4.99443        -1.59815         0.11871
C           3.76360        -2.34912         0.03328
C           2.92834        -3.44124         0.20659
C           1.68646        -2.68243         0.21483
C           0.29824        -2.89744         0.41295
C          -0.22255        -1.61686         0.37311
C           0.12056        -4.34977         0.50121
C           1.24018        -5.15860         0.57209
N           2.61667        -4.72028         0.55576
H           0.04183         0.53126        -0.36234
H           2.53996        -0.52680         1.06277
H           2.45676         2.17759        -0.18065
H           4.93078         3.07135        -0.26024
H           7.29454         2.36189        -0.18210
H           7.43371        -0.24903         0.12095
H           5.86970        -2.20995         0.26647
H           3.23110        -1.59828        -0.57351
H           1.58819        -2.42419        -0.84404
H           1.79838        -2.25371         1.23074
H          -1.28883        -1.42868         0.34275
H          -0.87445        -4.79261         0.49836
H           1.13890        -6.24416         0.63951
H           3.35388        -5.42290         0.60058

