%chk=C1dCCC2dCCdC3CdCCdC3CdCC2dC1.chk
%NProcShared=20
# opt freq b3lyp/6-31g(2df,p)

Title Card Required 

0  1
C           0.77100         0.98663         0.00676
C           1.39544        -0.20205        -0.00211
C           0.60901        -1.41242        -0.03049
C          -0.80009        -1.12606         0.00898
C          -1.46677        -2.23573         0.02398
C          -1.33967        -3.56363         0.01868
C          -2.55614        -4.08353         0.02076
C          -2.61093        -5.49606         0.02512
C          -3.90860        -5.77029         0.02589
C          -4.70250        -4.47537         0.02183
C          -3.91748        -3.33685         0.01971
C          -4.22382        -1.58082         0.01365
C          -3.39287        -0.30078         0.00629
C          -1.65304         0.03805         0.00503
C          -0.78191         1.12806         0.00203
H           1.44672         1.84201         0.01187
H           2.46278        -0.40503         0.00177
H           0.83291        -2.04076         0.84150
H           0.79044        -1.97007        -0.95797
H          -2.43309        -1.98479         0.02439
H          -0.38639        -4.04652         0.01310
H          -1.73289        -6.13031         0.02894
H          -4.22746        -6.80703         0.02957
H          -5.76960        -4.64271         0.01999
H          -5.32127        -1.48952         0.01961
H          -3.89701         0.67952         0.00069
H          -1.02211         2.19137        -0.00008

