%chk=CC12SCdNCdCC1dCCqdOrCqOrS2.chk
%NProcShared=20
# opt freq b3lyp/6-31g(2df,p)

Title Card Required 

0  1
C           1.32354         0.23095         0.13426
C           2.88842         0.17006         0.29605
S           3.25841        -1.22155        -0.84122
C           4.98194        -1.31989        -0.83070
N           5.82945        -0.39702        -1.14516
C           5.45107         0.84060        -1.59928
C           4.45227         1.65257        -1.19630
C           3.76763         1.47126         0.09436
C           4.49405         1.99889         1.13170
C           5.46304         0.91206         1.47816
O           6.66616         1.05785         1.19626
C           4.89628        -0.28135         2.19072
O           5.27323        -0.14163         3.54596
S           3.08946        -0.36597         2.07500
H           0.97921         0.25298        -0.91177
H           0.82703         1.06138         0.64847
H           0.85982        -0.68826         0.54486
H           5.38968        -2.30165        -0.52627
H           6.19593         1.27905        -2.26218
H           4.34880         2.61153        -1.69960
H           5.12566         2.88931         1.21185
H           5.31599        -1.19208         1.76247
H           4.79389         0.64635         3.85519

