%chk=CC12CdCCdCCdCCdNCdNNdCC1dC2N.chk
%NProcShared=20
# opt freq b3lyp/6-31g(2df,p)

Title Card Required 

0  1
C           2.69862         0.48084        -0.82851
C           4.53624         1.20653        -1.99818
C           3.34175         1.64147        -0.77956
C           4.52789         1.95485        -0.37605
C           4.91615         3.14393        -1.29493
C           6.21268         3.41936        -1.23913
C           6.68911         4.34725        -2.24646
C           7.96757         4.70602        -2.12841
C           8.43089         5.91366        -2.97168
N           9.58053         6.48188        -2.77772
C          10.12613         7.20434        -3.81763
N          11.00267         6.29958        -3.92240
N           9.67243         4.67638        -4.05645
C           8.33208         3.30634        -3.55930
C           6.63677         1.93997        -2.65178
C           5.67157         0.38677        -1.93001
N           4.40236        -0.95287        -1.11739
H           1.45840         0.94441         0.12480
H           1.66266        -0.39536         0.04681
H           1.22648         0.17291        -1.14873
H           2.42172         2.14145        -1.21226
H           5.19782         0.94992        -0.09287
H           4.19805         3.50673        -2.03935
H           6.92864         2.43718        -0.91521
H           6.05045         4.92556        -2.86908
H           8.76806         3.80709        -1.89825
H           7.84923         6.34533        -3.77400
H           9.65960         7.83304        -4.58093
H           9.74665         4.34647        -3.62453
H           3.76666        -2.24015        -0.97207
H           3.32533        -1.50036        -0.27062

