%chk=Cc1cc2cn1CdCCdCCdCCdCCdCCdC2.chk
%NProcShared=20
# opt freq b3lyp/6-31g(2df,p)

Title Card Required 

0  1
C           2.41737         1.37828         0.07849
C           4.29770         3.30842         0.11568
C           3.51462         1.47540         0.06691
C           4.63079         1.01892         0.07922
C           5.25657         2.89467         0.11430
N           5.97837         5.21145         0.18559
C           7.52993         7.64555         0.23402
C           9.08441         9.41793         0.22054
C          10.29328        11.12113         0.13898
C          10.35608         9.53855         0.06471
C           9.12757         8.04548        -0.30511
C          10.10468         7.83221         0.40224
C           8.55670         6.68837         0.10988
C           8.51203         5.61241         0.10123
C           7.49008         5.24593         0.05197
C           7.59175         3.96178         0.09308
C           6.71118         3.27410         0.06215
C           6.17728         1.82228         0.07923
H           0.73294         1.16874         0.06072
H           1.18843         0.08542         0.70236
H           1.19293         0.08969        -0.57437
H           3.05799         2.43185         0.04438
H           5.24706         0.93092         0.08832
H           8.60060         9.36181         0.22682
H          10.76052        10.69026         0.15380
H           9.34400        12.15018         0.10887
H          11.57277         9.66239         0.12678
H           7.68095         9.18351        -0.02307
H          10.61006         7.25932         0.04732
H           6.58558         7.13451         0.00775
H           9.28009         5.34773         0.11353
H           6.01747         6.37434         0.02996
H           8.04744         3.14241         0.10259
H           5.29204         4.19950         0.04283
H           6.79549         0.99445         0.09037

