%chk=CC1CdCSCdCCdCCSqd[SH]CSrSC1.chk
%NProcShared=20
# opt freq b3lyp/6-31g(2df,p)

Title Card Required 

0  1
C           1.85209         0.32670        -0.35095
C           3.79605         0.81882        -0.45018
C           3.24708         1.78255         0.47800
C           4.39841         1.99028         1.05931
S           4.78039         3.64914         0.96151
C           6.41854         3.36104         1.30619
C           7.17147         4.42592         1.57227
C           8.55420         4.09945         1.81992
C           9.34376         5.12610         1.69954
C          10.91781         4.70086         0.93837
S           9.46920         5.59565        -0.06185
S          10.45395         7.09770         1.61663
C           9.20407         7.72162         3.05076
S           8.99494         8.39433         4.73653
S           7.69686         3.45271        -0.87063
C           5.71814         1.85785        -0.90022
H           1.24501         0.44732         0.70674
H           1.33385        -0.77291        -0.42145
H           1.08196         0.85323        -0.96795
H           3.80477        -0.19800         0.23053
H           2.33577         2.36941         0.33358
H           5.14630         1.10500         0.93415
H           6.98691         2.41908         1.00346
H           6.82389         5.43713         1.22768
H           9.15541         3.29240         1.38683
H           8.66180         6.27598         1.59359
H          11.64928         5.16883         0.14669
H          11.55562         4.89906         1.91239
H          11.28345         8.17572         2.54845
H           8.74369         6.79779         3.20895
H           8.87626         8.54891         2.44816
H           9.24987         7.43008         5.65438
H           5.99086         0.67675        -1.02875
H           5.21042         1.74520        -1.90097

