%chk=Cc1cc2cqcn1rNdCdCCdCCCdC2.chk
%NProcShared=20
# opt freq b3lyp/6-31g(2df,p)

Title Card Required 

0  1
C           1.03367         0.04952        -0.02620
C           2.52364        -0.18744         0.00201
C           3.63541         0.50972         0.44418
C           5.06840        -0.15325         0.39170
C           5.24679        -0.46845        -0.87675
C           4.25260        -1.48211        -0.87718
N           2.89946        -1.35981        -0.44337
N           6.57304        -0.08319        -1.44982
C           7.50487        -0.76011        -1.33935
C           8.28132        -1.85023        -1.30289
C           7.48591        -3.03817        -1.40003
C           7.88001        -4.24236        -0.97971
C           6.79141        -4.77642        -0.04247
C           6.20998        -3.25595         0.86862
C           6.01274        -1.68079         0.96906
H           0.63906         1.07331         0.01718
H           0.58456        -0.51525         0.80125
H           0.59977        -0.40525        -0.93743
H           3.43218         1.62582         0.32456
H           4.42935        -2.38235        -0.22424
H           9.35552        -1.96533        -1.27434
H           6.40591        -2.85480        -1.33982
H           8.94205        -4.46346        -0.89447
H           6.21174        -5.54373        -0.63125
H           7.14159        -5.52667         0.74931
H           7.25592        -3.56341         1.22351
H           6.88610        -0.97327         0.92183

