%chk=CC1CCCNdCNdNCdCNdNOC1dO.chk
%NProcShared=20
# opt freq b3lyp/6-31g(2df,p)

Title Card Required 

0  1
C           2.33603         0.06805        -0.32712
C           4.37896         0.47335        -0.46951
C           3.37088         1.69285        -0.50766
C           4.73898         1.89178        -0.40215
C           5.13512         3.20035        -0.70433
N           6.51346         3.22189        -0.38351
C           7.19072         4.18371        -0.87024
N           8.48586         4.29721        -0.48943
N           9.11454         5.22902        -1.00547
C          10.44391         5.27444        -0.48581
C          11.20939         5.76218        -1.43160
N          10.97534         4.33913        -2.16313
N           9.77562         3.14112        -1.98888
O           8.14262         2.01294        -1.47318
C           6.52987         1.06692        -1.03194
O           6.76739        -0.09566        -1.45018
H           1.48993         0.67953         0.53043
H           1.58038        -0.88967         0.08901
H           1.37718         0.29767        -1.10546
H           4.09924        -0.09614         0.55183
H           2.82109         2.07984         0.37544
H           2.80412         1.71280        -1.46049
H           4.96538         1.49127        -1.68286
H           5.19859         1.43871         0.75564
H           4.61632         3.66900         0.07408
H           4.79261         3.20189        -1.75239
H           6.66914         4.91901        -1.44608
H          11.06389         4.22343        -0.29427
H          11.01048         6.83627        -1.87779

