%chk=CC1dCCdCNdC2NdNCdC2CdCCdCNdC1.chk
%NProcShared=20
# opt freq b3lyp/6-31g(2df,p)

Title Card Required 

0  1
C           1.10209         0.42158        -0.20479
C           2.39076         1.10476        -0.72289
C           3.28524         0.48744        -1.51679
C           4.75829         0.61198        -1.11642
C           5.62588         1.50164        -1.61760
N           6.99107         1.68367        -1.50063
C           7.61274         2.57859        -2.22816
N           9.00463         2.66127        -2.27770
N           9.36113         3.61680        -3.04152
C           8.27613         4.23554        -3.54013
C           7.13218         3.64596        -3.13444
C           5.86667         4.00505        -3.42630
C           5.27383         5.00851        -4.09549
C           3.83147         4.80820        -3.95312
C           3.16913         4.66257        -2.74131
N           2.66003         3.35695        -2.15300
C           2.79774         2.68315        -0.98835
H           0.26142         0.90096        -0.69593
H           0.93970         0.47238         0.88781
H           0.97632        -0.67398        -0.40354
H           3.04883         0.94405        -2.51282
H           5.11561        -0.00262        -0.30583
H           5.06080         2.14922        -2.20304
H           8.28516         5.10135        -4.18162
H           5.09412         3.39970        -3.05150
H           5.85026         5.74537        -4.63143
H           3.57579         3.96473        -4.60881
H           2.34520         5.29404        -3.18986
H           3.49192         2.88463        -0.11695

