%chk=CC1dCCdCCdC2CdCC1dCNdCdC2Cl.chk
%NProcShared=20
# opt freq b3lyp/6-31g(2df,p)

Title Card Required 

0  1
C           2.44994         1.86598        -0.62412
C           4.06895         3.14398        -1.36455
C           3.91055         1.73479        -1.27501
C           4.86003         0.78625        -0.83829
C           5.77028         1.28992        -1.58115
C           7.09059         1.39922        -1.54584
C           7.53081         2.09294        -2.61560
C           8.51687         2.76484        -1.88311
C           7.75907         3.89449        -1.92715
C           5.74732         3.98923        -2.01736
C           6.24060         5.21510        -3.16309
N           7.49388         5.07049        -4.15318
C           7.36862         3.94467        -4.47643
C           6.86030         2.77427        -4.08267
Cl          4.84803         3.09633        -4.33851
H           2.36183         0.61306        -0.06427
H           1.71339         0.96714        -1.35323
H           1.46505         1.92419         0.08434
H           3.21389         1.71794        -2.22736
H           5.10837         0.19740         0.03912
H           5.45390         1.95421        -2.35297
H           7.58904         1.07370        -0.64392
H           9.54332         2.26544        -1.91011
H           8.85520         4.10614        -2.76933
H           6.04721         6.16858        -3.96519

