%chk=CC1dc2ccccc2dCqCrCdC2OCCdC2CdCNdNCdC1.chk
%NProcShared=20
# opt freq b3lyp/6-31g(2df,p)

Title Card Required 

0  1
C           1.67936        -0.07644         0.72234
C           2.69817         1.05647         0.55446
C           3.30865         0.99256        -0.66746
C           4.79931         1.01356        -0.52707
C           5.44884         2.17305        -0.59628
C           4.77778         3.32892        -1.15644
C           3.56455         3.23005        -1.74779
C           2.68192         1.97307        -1.60948
C           1.29725         2.00466        -1.77136
C           0.71641         3.32341        -1.90831
C           0.09377         1.16182        -1.26018
C          -1.10995         1.49485        -0.67866
O          -1.92172         0.42936        -0.22886
C          -3.20044         0.76511        -0.78526
C          -3.17426         2.26249        -0.88392
C          -1.96691         2.73206        -0.58603
C          -1.60493         4.19456        -0.45366
C          -0.58016         4.53811         0.36647
N           0.50532         5.37527         0.15323
N           1.70048         5.00323         0.43887
C           2.39695         3.82901         0.85423
C           2.20894         2.49380         1.18004
H           0.74776         0.45215         0.67652
H           1.53207        -0.59858         1.66349
H           1.70050        -0.83661        -0.09207
H           5.31365         0.10604        -0.20535
H           6.47702         2.29424        -0.24639
H           5.25274         4.29720        -0.99368
H           3.13651         4.18757        -2.02477
H           1.30143         4.21596        -2.02293
H           0.49748         3.33860        -0.85844
H          -0.17918         3.35940        -2.51221
H           0.24765         0.08202        -1.28586
H          -4.00026         0.39104        -0.13523
H          -3.26721         0.25198        -1.74929
H          -4.06675         2.82260        -1.15721
H          -2.03810         4.83635        -1.23531
H          -0.30111         3.82461         1.11767
H           3.44670         4.13525         0.90808
H           3.08088         2.31619         1.86708

