%chk=CC1dC2CqdCCdOrCC2dC1.chk
%NProcShared=20
# opt freq b3lyp/6-31g(2df,p)

Title Card Required 

0  1
C           0.87065        -0.01866         0.05896
C           2.31255        -0.15607         0.05879
C           3.38384         0.59925         0.06227
C           4.61772         1.21664         0.06511
C           5.16391         2.40684         0.05993
C           6.63549         2.40453         0.05710
O           7.25453         3.45587         0.05610
C           5.35153        -0.01985         0.04570
C           4.14899        -0.74939         0.05305
C           2.99983        -1.35800         0.07054
H           0.55232         1.00641         0.05779
H           0.53708        -0.57145         0.93786
H           0.53690        -0.57402        -0.81810
H           4.56111         3.27824         0.05620
H           7.17759         1.43460         0.05783
H           5.90338        -0.08801         0.97147
H           5.81010        -0.08358        -0.93223
H           2.62888        -2.35025         0.06982

