%chk=CC1dCCdCdCCdCdCdCCqNrdCCqCrdC1CN.chk
%NProcShared=20
# opt freq b3lyp/6-31g(2df,p)

Title Card Required 

0  1
C           2.37161         0.05683         0.36524
C           4.59733         0.15766         1.31460
C           3.16066         0.46235         1.31069
C           4.63469         0.83703         1.63195
C           4.83165         1.14060         2.88522
C           5.67172         1.35022         3.98768
C           6.43132         2.59083         3.75007
C           7.05683         3.00330         4.82234
C           7.63334         3.29218         5.83712
C           8.28845         3.59677         6.92631
C           9.70817         3.37884         6.63480
N          10.81512         1.99438         5.87748
C           8.95748         2.04919         6.62923
C           7.94130         1.13646         4.64888
C           9.56246         1.63808         6.90135
C           6.64742         0.53371         2.63556
C           5.08211        -0.11526         0.35211
N           4.25622        -0.55914        -1.90979
H           0.88788         0.30057         0.94433
H           1.02868        -0.87558        -0.17545
H           1.05391         0.63623        -0.62411
H           2.66732         0.67637         2.11806
H           6.12019         0.49331         0.71356
H           6.45070         0.28935         4.17097
H           6.07532         3.25371         2.99690
H           8.08146         4.31970         7.65681
H           9.91540         1.39756         5.57378
H          11.19641         1.15783         6.75220
H           9.60130         3.03428         8.06553
H          11.10282         2.08325         8.03705
H          10.63086         1.93929         8.51296
H          10.74455         2.54607         8.20662
H           3.77968         0.05713        -0.94251
H           3.74504        -0.70176        -0.74268
H           4.20736        -0.26550        -3.50952
H           3.46146        -1.07389        -3.38079

