%chk=CC1dNC2dCCdCCdCCdCCCCC2C1.chk
%NProcShared=20
# opt freq b3lyp/6-31g(2df,p)

Title Card Required 

0  1
C           1.19378         0.03249         0.08326
C           2.96384        -0.07198        -0.00879
N           3.58588        -1.16925        -0.07682
C           5.11533        -0.84115        -0.06564
C           5.91418        -1.74528         0.37813
C           7.22590        -1.31726         0.63950
C           8.27185        -2.06903         0.70125
C           9.50986        -1.46893         0.95259
C          10.51029        -2.24943         1.21235
C          11.59060        -1.38157         1.66805
C          12.60812        -2.24943         1.62043
C          13.12094        -1.27793         0.39416
C          11.15826        -0.97353        -0.56645
C           8.80072        -0.31127        -0.75374
C           6.59818         0.28897        -0.55027
C           4.54261         0.95688        -0.09543
H           0.71901        -1.00053         0.01549
H           0.71039         0.56744        -0.75425
H           0.72359         0.43034         1.01176
H           5.58903        -2.71755         0.52091
H           7.63013        -0.25973         0.67622
H           8.10054        -3.08363         0.70488
H           9.89730        -0.35928         0.71877
H          10.53683        -3.31426         0.98349
H          11.99900        -0.29069         0.99892
H          12.78453        -3.36136         1.32234
H          14.22494        -1.14097         1.43698
H          14.47663        -1.53523        -0.08915
H          12.36199        -1.85648        -0.19301
H          12.18581        -2.14405        -0.66884
H           7.90704        -0.68481        -1.57164
H           8.25792         0.51970        -1.40648
H           6.23134         1.28381         0.16899
H           3.55527         1.81816        -0.55736
H           3.89120         1.47356         1.02473

