%chk=CC1dCCdCSCqCrdCCdCCCCCdC1.chk
%NProcShared=20
# opt freq b3lyp/6-31g(2df,p)

Title Card Required 

0  1
C           2.79634         0.31125         0.23243
C           5.35544         0.98428         0.75689
C           3.44686         0.95795         0.73637
C           4.92755         1.13357         0.87322
C           5.65871         2.25528         1.74731
S           7.03074         3.07471         2.38584
C           7.84166         4.00806         3.11315
C           6.64199         4.20263         3.26476
C           8.30889         3.16104         2.45312
C           9.13880         4.53304         3.52223
C          10.32686         4.43298         3.44427
C          11.33783         5.80263         4.51156
C          13.00546         5.63741         4.38281
C          11.47581         5.00393         3.88917
C           9.80789         3.23465         2.51047
C           7.85739         1.88015         1.45498
H           1.00986         0.69806         0.53385
H           1.19307        -0.72614         0.30998
H           1.19307         0.13292        -0.79245
H           2.70830         1.62298         1.25459
H           6.49096         1.18763         0.91535
H           4.83006         2.56558         1.98910
H           5.74252         3.79426         2.94654
H           6.96042         5.10876         2.82333
H           6.96042         3.99603         4.25130
H           9.62598         2.22767         1.72579
H           8.92652         5.25575         4.08540
H          12.20039         3.76359         2.92265
H          11.10297         5.65789         5.59406
H          11.10297         6.81694         4.10666
H          13.41502         5.94580         3.46124
H          13.41502         4.81915         4.90706
H          12.43513         6.02503         5.33586
H          12.43513         6.65629         4.52577
H          11.33224         4.00312         3.10930
H           7.20331         0.55683         0.42380

