%chk=CC1dCdCCdCCdCdCCd[SH]CCd[SH]1.chk
%NProcShared=20
# opt freq b3lyp/6-31g(2df,p)

Title Card Required 

0  1
C           2.28120         0.73128        -0.78343
C           4.18594         1.52222        -1.43448
C           4.09894         1.50956        -0.04872
C           3.96802         2.64710         0.49500
C           4.17140         3.62088        -0.56537
C           5.02595         4.61233        -0.37606
C           5.70163         5.34854        -1.42325
C           6.73807         5.94531        -0.90721
C           7.32671         7.03951        -0.60068
C           7.14774         8.03942        -1.60098
S           8.47022         8.98836        -2.11775
C           7.68347         7.42509        -3.72457
C           7.24317         5.41230        -3.14268
S           5.94049         3.06838        -2.34478
H           1.28563         1.26400        -0.10372
H           1.81635        -0.15410         0.28076
H           1.39324        -0.11413        -1.24309
H           3.93007         2.84601         1.53711
H           4.02196         3.27387        -1.69861
H           5.46101         4.66265         0.60826
H           5.64427         4.99000        -2.65532
H           8.30164         7.12279        -0.18783
H           6.41338         7.89264        -2.43549
H           9.80045         8.85030        -1.90496
H           7.39671         8.84690        -3.94259
H           8.73031         8.30074        -4.27094
H           8.36472         6.18243        -2.84623
H           6.18838         2.19486        -1.18495

