%chk=CC1dCCdC1CC1CdCC2dCC2dCC2dCCdCC2C1.chk
%NProcShared=20
# opt freq b3lyp/6-31g(2df,p)

Title Card Required 

0  1
C           0.83567        -0.10450         0.14634
C           2.30535        -0.18269         0.26050
C           3.16311        -0.79417         1.05927
C           4.24328        -0.19815         0.30614
C           3.34075         0.50826        -0.46142
C           2.74921         1.50610        -1.58312
C           3.03500         2.35827        -2.82359
C           2.92109         3.70066        -3.53251
C           3.59830         4.00537        -4.69207
C           2.94306         4.64924        -5.75916
C           2.96184         5.26168        -6.91659
C           1.63802         4.89603        -6.50542
C           0.90294         4.07805        -5.82116
C          -0.30601         3.56451        -5.41408
C          -1.42690         3.48410        -6.13698
C          -2.50568         3.14891        -5.28319
C          -1.96249         2.78337        -4.07186
C          -0.15161         2.77146        -3.98906
C           1.63814         1.87870        -3.87752
H           0.39056        -0.70041         0.93044
H           0.55114        -0.43579        -0.85759
H           0.54993         0.95084         0.18548
H           2.93799        -1.45537         1.89957
H           5.25733        -0.46738         0.59691
H           1.98774         2.09944        -1.08008
H           2.09605         0.72928        -2.01216
H           4.08165         2.71537        -2.61273
H           1.93973         4.11074        -3.36086
H           4.57067         3.58828        -4.96991
H           3.70549         5.62498        -7.52756
H           1.41245         3.44475        -5.17326
H          -1.55676         3.75586        -7.17697
H          -3.50740         3.55229        -5.57244
H          -2.64293         3.29307        -3.34157
H          -0.11920         3.44818        -3.10888
H           2.22542         1.89662        -4.84160
H           1.75497         0.78075        -3.82065

