%chk=CC1dCCdCC2dCqCqNrdOrCdCC1dCCdCNCdN2.chk
%NProcShared=20
# opt freq b3lyp/6-31g(2df,p)

Title Card Required 

0  1
C           2.49460         0.29500         0.16143
C           4.77554         0.67362         0.48394
C           3.64583        -0.48977        -0.36816
C           4.58682        -1.26276        -0.88703
C           5.34002        -2.09988        -1.44615
C           6.65219        -2.23753        -1.53442
C           7.56018        -2.99701        -2.04000
C           6.85773        -4.11413        -2.78372
N           7.55645        -5.10333        -3.44063
O           5.61644        -4.16508        -2.81738
C           8.78980        -2.06106        -1.41203
C           8.61086        -0.52618        -0.23434
C           7.19756         0.54169         0.99023
C           6.78696         2.57593         1.74141
C           7.95062         2.39734         1.47311
C           6.29039         1.98342         0.80645
N           7.25319         0.54069        -0.25536
C           6.54061        -0.52041        -0.37543
N           7.06625        -1.32364        -0.92614
H           1.23674        -0.62783        -0.46712
H           1.07300         0.84623        -0.43747
H           1.07182        -0.02920         0.88014
H           2.84113        -1.57976        -1.10171
H           5.00695        -0.58105        -0.43872
H           4.81512        -2.78567        -1.90112
H           8.56185        -5.14795        -3.47034
H           7.06782        -5.85500        -3.94000
H          10.13032        -1.86215        -1.28975
H           8.89499        -1.91775        -1.31540
H           6.11273         3.78640         2.46523
H           8.67218         3.08865         2.01225
H           5.28709         2.21843         1.45002
H           8.59667         0.83019         0.46574
H           6.03978         0.11108         0.02703

