%chk=CC1dNNdS2CdCCdCCdNNdNNdCdC12.chk
%NProcShared=20
# opt freq b3lyp/6-31g(2df,p)

Title Card Required 

0  1
C           1.54750        -0.56371         0.29303
C           3.38017        -0.98576         0.85968
N           3.63007         0.26337         0.44356
N           4.81123         0.43820        -0.01685
S           5.56062        -0.87052        -0.12723
C           5.53791        -0.52482         1.91896
C           6.83848        -0.34110         2.01083
C           7.40915        -0.70272         3.22523
C           8.72416        -0.68932         3.26064
C           9.14860        -1.12230         4.57205
N          10.36152        -1.51859         4.65135
N           9.97301        -2.93018         4.59811
N           9.09060        -3.32298         3.41309
N           7.23724        -3.17310         2.90477
C           6.28790        -2.82593         2.00081
C           4.80466        -2.28671         1.05947
H           1.24522         0.62371         0.16686
H           0.77072        -0.72795         1.03780
H           1.12117        -0.75102        -0.73490
H           4.89555        -1.13882         2.73766
H           7.37603        -0.34357         1.05163
H           6.83729        -1.31582         3.95794
H           9.34172        -0.69929         2.36016
H           8.44146        -1.79682         5.14412

