%chk=CC1dCC2dCCdCCdCdCC2dCCdC1.chk
%NProcShared=20
# opt freq b3lyp/6-31g(2df,p)

Title Card Required 

0  1
C           0.85060         0.20379        -0.05458
C           2.33531         0.22761        -0.01875
C           2.80198        -1.02727         0.07947
C           4.04431        -1.54733         0.06828
C           3.96779        -2.81070        -0.40298
C           3.19745        -3.94231        -0.55303
C           3.94170        -5.09242        -0.67612
C           4.73131        -5.22132         0.62397
C           5.61387        -4.10484         0.74909
C           6.29438        -2.78521         0.57065
C           5.43857        -1.23055         0.27141
C           5.66012         0.15081         0.07039
C           4.56330         1.32778        -0.03607
C           3.20012         1.34193        -0.05251
H           0.44853        -0.82997        -0.05428
H           0.48287         0.65577        -0.97120
H           0.47418         0.65804         0.85758
H           2.04948        -1.77746        -0.00268
H           4.85643        -2.99757        -0.94382
H           2.18464        -3.88775        -0.15708
H           4.88376        -5.51356        -1.08495
H           3.62938        -5.79782         0.67661
H           7.19863        -2.71130        -0.07451
H           6.62568         0.68569         0.02460
H           4.94883         2.36115        -0.04188
H           2.61332         2.27119        -0.06954

