%chk=CC1dCCdCqOrCqCrdCCdNCdCCdC1.chk
%NProcShared=20
# opt freq b3lyp/6-31g(2df,p)

Title Card Required 

0  1
C           2.48988         0.23031        -0.23606
C           4.81105         0.54267        -0.57145
C           3.39098         1.00821        -1.02071
C           4.76525         1.18407        -1.19239
C           5.34962         1.98186        -1.99607
O           4.63183         2.70921        -2.73116
C           7.06292         2.13771        -2.13718
C           8.29724         0.60195        -0.58329
C           7.13225         2.95725        -2.97814
C           8.27025         2.74836        -2.86130
N           9.09225         3.55315        -3.58827
C           9.57544         2.71832        -2.70034
C          10.64297         3.19261        -3.16775
C           9.22258         1.98805        -1.83922
C           7.19088         1.21455        -1.11981
H           0.99893         0.75271        -0.76076
H           1.11238         0.34528         0.72415
H           1.11218        -0.72904        -0.34263
H           2.65878         1.58978        -1.60229
H           5.90018         0.99705        -0.99938
H           3.70009         2.58960        -2.61061
H           7.47794        -0.00484         0.00336
H           8.39751         1.48309         0.05261
H           8.39637        -0.07012        -1.47844
H           6.79886         3.50507        -3.53280
H           8.32316         1.39155        -1.66119
H          11.23787         2.14098        -2.11383
H          11.11615         4.31065        -4.33935
H          10.78754         2.71502        -2.84064
H           6.27680         0.15742        -0.14776

