%chk=CC1dCCdNC2dNCdCCqdOrC2dNCdCSCdC1.chk
%NProcShared=20
# opt freq b3lyp/6-31g(2df,p)

Title Card Required 

0  1
C           1.63787        -0.19509         0.66991
C           3.16267        -0.59272         0.95586
C           3.63922        -0.94679        -0.28207
C           5.03330        -0.87815        -0.75423
N           5.52050        -1.53139        -1.76454
C           6.91524        -1.54281        -1.80149
N           7.52759        -1.43529        -2.94527
C           8.90715        -1.47311        -2.97955
C           9.75884        -1.56125        -1.96038
C           9.24481        -1.66666        -0.60194
O           9.98634        -1.73604         0.33287
C           7.74405        -1.74438        -0.52598
N           7.08188        -1.99751         0.55200
C           7.64210        -1.99242         1.79541
C           6.74199        -2.07382         2.77747
S           6.49658        -0.70012         3.83699
C           4.66094        -0.66864         3.41924
C           4.19975        -0.26466         2.16699
H           1.24988        -0.72427        -0.23892
H           1.49810         0.85196         0.33742
H           0.88723        -0.46261         1.41289
H           2.97403        -1.14092        -1.13080
H           5.65070        -0.18019        -0.17283
H           9.34886        -1.41432        -3.97313
H          10.83648        -1.57815        -2.02905
H           8.61538        -1.54671         1.97513
H           5.81347        -2.55972         2.49980
H           4.29954        -1.37663         4.15670
H           4.45096         0.79108         2.05781

