%chk=CC1dCCdCCdCC2dS1CdCSCdCCdC2.chk
%NProcShared=20
# opt freq b3lyp/6-31g(2df,p)

Title Card Required 

0  1
C           2.01464         0.92887        -0.36364
C           4.03909         1.54803        -0.78669
C           3.80060         0.08811        -0.01141
C           4.82644        -0.69134         0.52693
C           5.45667         0.08973         1.38333
C           4.77279         1.15935         2.11324
C           4.19573         2.25777         1.61622
C           4.47947         2.61116         0.24475
S           6.05973         2.98300        -0.96385
C           7.56632         5.26259        -0.89223
C           8.00312         6.74915        -0.21187
S           6.74709         6.84536        -1.73164
C           6.15849         6.16519         0.29159
C           5.34498         5.56131        -0.56819
C           5.03018         4.60477         0.38148
C           4.52950         3.77238        -0.54800
H           1.43132        -0.23954         0.30389
H           1.18846         0.27729        -1.16176
H           1.07001         1.31404         0.31660
H           2.94485        -0.83344         0.58386
H           5.19128        -1.58965         0.03995
H           6.51533         0.01255         1.34690
H           4.65024         1.02019         3.16331
H           3.42057         2.87900         2.03729
H           8.02951         6.74599        -0.63575
H           8.20464         7.88621         0.72804
H           6.98811         6.22056         1.10334
H           5.75589         5.13314        -1.86713
H           5.41843         4.05264         1.31691
H           4.32546         3.35738        -1.84927

