%chk=CC1dCCdCC2dC[SH]dC2C2dCqCCC[SH]dOrC1dC2.chk
%NProcShared=20
# opt freq b3lyp/6-31g(2df,p)

Title Card Required 

0  1
C           1.04977        -0.08990        -0.08326
C           2.88327        -0.08805        -0.08139
C           3.16487         0.92235         0.75447
C           4.38047         1.44979         1.18179
C           5.50080         1.89623         1.55581
C           6.87745         1.80215         1.47128
C           7.56119         2.67524         2.21668
S           9.17376         2.30700         1.90289
C           7.80486         0.97893         0.81093
C           6.91201        -0.00092        -0.00109
C           6.62992        -0.94599        -0.78878
C           6.81097        -2.21666        -1.83793
C           7.76547        -3.06919        -2.54005
C           7.01699        -4.09865        -3.38291
S           8.18666        -5.15577        -4.27969
O           7.42686        -6.17536        -5.08124
C           4.76052        -0.28882        -0.24674
C           5.65721        -0.96657        -0.80511
H           0.58400        -0.84743        -0.70801
H           0.59141         0.89236        -0.41014
H           0.59141        -0.22404         0.94334
H           2.52880         1.56716         1.28358
H           5.20327         0.86255         0.70226
H           4.90725         2.54308         2.08856
H           7.01176         3.39556         2.79977
H           9.96063         2.23090         3.21957
H           6.15572        -1.71717        -2.57993
H           6.15579        -2.85057        -1.20588
H           8.39015        -3.59579        -1.83057
H           8.38997        -2.47258        -3.19278
H           6.38097        -3.58500        -4.10908
H           6.37970        -4.70949        -2.74663
H           8.93078        -5.80912        -3.37575
H           4.64345        -1.12657        -0.93839

