%chk=CC1dNCdNNdCCdCC2OC2CCqOrdC1.chk
%NProcShared=20
# opt freq b3lyp/6-31g(2df,p)

Title Card Required 

0  1
C           2.70977         0.06880        -0.56530
C           4.85876         0.09095        -1.37828
N           3.83786        -0.92255        -0.94472
C           4.88151        -1.44966        -0.53904
N           5.32674        -2.14022        -1.49936
N           6.65768        -2.13333        -1.27282
C           7.33729        -2.81858        -2.11282
C           8.80380        -2.88739        -2.09631
C           9.49350        -3.71766        -2.87661
C          10.91873        -3.81775        -2.84438
O          11.79284        -4.68065        -3.45608
C          11.45934        -3.30899        -4.07542
C          10.93520        -1.71591        -3.20507
C           9.00668        -0.64244        -2.63943
O          10.65126        -0.16046        -3.60915
C           7.11749        -0.21893        -2.07782
H           1.36615        -0.72216        -0.72159
H           1.34200         0.78693        -0.48294
H           1.59993        -0.17265         0.56868
H           5.37671        -0.75311         0.24491
H           6.81083        -3.47454        -2.77842
H           9.35657        -2.15724        -1.47525
H           8.99472        -4.39541        -3.50557
H          11.20905        -3.23795        -1.94611
H          11.49291        -3.27789        -5.18034
H          12.21865        -2.08345        -4.06982
H          12.48348        -1.92192        -3.01150
H          11.87950        -0.48383        -4.16776
H           6.49914         0.47867        -0.95581

