%chk=CC1dCCdCCdCCdCCdCCdCCdCCdCdNO1.chk
%NProcShared=20
# opt freq b3lyp/6-31g(2df,p)

Title Card Required 

0  1
C           3.84723        -0.63065         0.68774
C           6.58688        -1.28588         1.32059
C           4.48992        -1.23190         1.26846
C           5.43719        -0.70594         0.76046
C           5.36548        -1.96698         1.97844
C           7.54373        -2.01405         2.02390
C           7.73506        -2.80382         2.78670
C           9.23307        -3.09276         3.06578
C           9.93374        -3.74486         3.69562
C          10.52902        -3.13907         3.11050
C          11.34679        -4.26253         4.19560
C          12.55090        -4.43994         4.36696
C          13.58795        -5.18309         5.08474
C          15.43709        -4.60419         4.52560
C          15.85042        -5.75356         5.63573
C          15.69714        -4.76433         4.68027
C          13.72894        -3.92375         3.86839
N          11.91140        -3.13236         3.10402
O           9.13730        -2.12849         2.13444
H           1.86944        -0.62857         0.68573
H           2.11818        -0.34984        -0.25784
H           2.11818         0.32411         0.43993
H           2.83207        -1.45885         1.48766
H           5.29668        -0.00878         0.08710
H           4.74526        -2.44522         2.44035
H           7.81248        -0.91653         0.96385
H           7.03004        -3.16664         3.13714
H          10.11512        -1.78044         1.79827
H           9.24655        -4.04136         3.98199
H          11.66504        -2.29431         2.29459
H          11.42433        -4.91670         4.82744
H          13.56008        -3.17917         3.14924
H          13.75688        -5.81653         5.69655
H          16.53373        -4.03352         3.97442
H          15.89914        -6.48616         6.34331
H          17.67516        -5.10123         5.00567

