%chk=CC1dCCdCC2dCSC2dCCdCCdNS1.chk
%NProcShared=20
# opt freq b3lyp/6-31g(2df,p)

Title Card Required 

0  1
C           1.74506         0.10344        -0.43687
C           3.59686         0.46643        -0.65612
C           3.68129         0.87544         0.63289
C           4.97538         0.83991         1.05910
C           5.51158         1.44031         2.09114
C           6.96440         1.44434         2.10518
C           7.87554         1.33962         3.07578
S           9.27022         1.39926         2.09478
C           7.92304         1.56699         1.03342
C           7.94617         1.86905        -0.24563
C           9.15070         2.08146        -0.97615
C           8.93281         2.51403        -2.21315
C           8.77981         1.12950        -2.89571
N           7.40757         0.73228        -2.71447
S           5.35391         0.58609        -2.06079
H           1.26521         0.61785         0.54062
H           1.29839        -0.89408        -0.06645
H           1.00252         0.53532        -1.11642
H           2.87956         1.03403         1.39833
H           5.54009         0.16276         0.44369
H           4.91271         1.98478         2.80865
H           7.76994         1.14898         4.12533
H           7.03701         2.02701        -0.80759
H          10.14486         1.77937        -0.61876
H           8.12241         2.98108        -2.73069
H          10.13132         1.56961        -3.05063

