%chk=CC1dCdCdCCdCC2dCSC1dNCdC2SNNNO.chk
%NProcShared=20
# opt freq b3lyp/6-31g(2df,p)

Title Card Required 

0  1
C           1.99488        -2.10357         0.21811
C           3.38367        -3.44001         0.42577
C           4.01343        -2.36907         0.81915
C           4.26425        -1.60807         1.81839
C           4.70038        -2.04131         2.90321
C           5.32512        -3.29962         2.69395
C           6.10286        -4.01835         3.44180
C           6.55558        -5.31294         3.05163
C           7.01017        -5.42730         1.76176
S           5.99066        -5.84860         0.30449
C           4.21224        -5.19364         1.08623
N           4.11908        -6.25008         2.10881
C           5.32743        -7.16607         2.92121
C           6.05430        -6.43585         3.80318
S           5.27555        -6.29096         5.50541
N           4.67809        -4.74930         5.51003
N           4.21529        -4.20067         6.70745
N           3.99899        -2.79525         6.55371
O           3.32177        -2.29751         7.73506
H           2.38327        -0.94444         0.03200
H           1.44246        -1.62671         1.10034
H           1.41816        -1.93905        -0.73458
H           4.84639        -1.57031         3.86607
H           5.29731        -3.64235         1.67963
H           6.25656        -3.68928         4.43099
H           7.30146        -4.49424         1.33027
H           5.43655        -8.21456         3.55134
H           4.09631        -4.51325         4.70767
H           4.92016        -4.35719         7.42983
H           3.29573        -2.59467         5.83143
H           3.98811        -2.48948         8.41882

