%chk=CC1dCCdNC2dCNCNC2dCCCdC1.chk
%NProcShared=20
# opt freq b3lyp/6-31g(2df,p)

Title Card Required 

0  1
C           1.67659         0.40963        -0.21926
C           3.25479         0.67635         0.00437
C           3.60321         0.04402         1.13898
C           4.99800        -0.28931         1.32001
N           5.54973        -0.28479         2.48164
C           6.93326        -0.29268         2.43003
C           7.65680        -1.19713         3.06740
N           9.02858        -1.26159         2.98878
C           9.81781        -0.26706         2.29500
N           9.00949         0.53983         1.39729
C           7.64193         0.72354         1.59481
C           6.88221         1.65303         1.04263
C           6.93424         2.40246        -0.20979
C           5.50637         2.20432        -0.95971
C           4.27988         1.50023        -0.92201
H           1.17706         0.15568         0.74685
H           1.44215        -0.50087        -0.80686
H           1.06835         1.23608        -0.59643
H           2.90693        -0.36783         1.86498
H           5.55020        -0.40675         0.36492
H           7.16967        -1.95916         3.67091
H           9.49389        -1.87092         3.64201
H          10.57019        -0.78011         1.69176
H          10.34036         0.36761         3.02362
H           9.48305         1.35955         1.03377
H           5.87955         1.80692         1.42402
H           7.73722         2.03560        -0.88323
H           7.27474         3.41979         0.05293
H           5.63873         2.87278        -1.82831
H           3.97166         1.27792        -1.95707

