%chk=CC1dCCdCCdCCdCCdC2CdCCdCN12.chk
%NProcShared=20
# opt freq b3lyp/6-31g(2df,p)

Title Card Required 

0  1
C           4.02630        -0.92235        -1.37514
C           6.44480        -1.53438        -2.47318
C           4.58888        -1.50861        -1.66974
C           5.41859        -1.05252        -0.60578
C           5.45499        -2.47368        -1.39643
C           7.43963        -2.38735        -1.36318
C           7.31735        -3.16172        -2.43929
C           8.48494        -3.08949        -1.64296
C           9.25751        -4.08607        -2.71873
C          10.84729        -3.15231        -2.31031
C          10.32899        -3.80633        -3.45088
C          10.93673        -5.32235        -4.79018
C          11.69818        -6.06713        -5.62574
C          12.14587        -4.95560        -4.84952
C          10.68599        -3.65111        -4.05356
N           8.62683        -2.45288        -3.29320
H           2.62978        -0.23641        -0.33117
H           2.40735        -1.03746        -0.41048
H           2.29998        -0.39047        -1.10318
H           2.88085        -1.79754        -1.56383
H           5.42423        -0.13632        -0.15004
H           4.71754        -2.80879        -2.44597
H           7.51548        -1.14590        -0.94358
H           6.84794        -3.56473        -3.16998
H           9.49826        -1.99191        -1.64041
H           8.96564        -4.48122        -3.92194
H          11.86181        -2.83439        -2.53577
H          10.00860        -5.28062        -4.78345
H          11.15962        -6.65780        -6.29590
H          13.19790        -6.15252        -5.82097
H          12.41806        -4.32265        -4.12164

