%chk=CC1dCCdNC2dCC2dCqCrC2qOrNdCCdC12.chk
%NProcShared=20
# opt freq b3lyp/6-31g(2df,p)

Title Card Required 

0  1
C           1.82996        -0.45408        -0.68957
C           3.60454        -0.78995        -0.55298
C           3.48917        -0.41892         0.82317
C           4.28588         0.55330         1.66434
N           5.17884         0.20607         2.54774
C           6.46072         0.71952         2.34388
C           7.60512         0.93893         2.75708
C           7.66620         0.39012         1.39218
C           7.15553         0.17027         0.12432
C           5.81718         0.38245        -0.01923
C           6.98674        -0.30228        -1.30766
O           8.34838        -0.71534        -1.45796
N           6.90025         0.51382        -2.53157
C           6.44850        -0.49790        -3.25086
C           5.79492        -1.73779        -2.57069
C           5.19169        -1.02751        -1.61868
H           1.48009         0.36695         0.05283
H           1.21800        -1.25438        -0.20157
H           1.30366         0.00160        -1.53666
H           2.54699        -0.16848         1.35229
H           4.27791         1.48732         1.02681
H           7.90301         0.84820         3.79791
H           5.80699         1.20790         0.57702
H           5.56360        -0.68869         0.30874
H           5.35311         0.92241        -0.85447
H           8.79690         0.18479        -1.38297
H           6.32172        -0.41972        -4.34782
H           5.91804        -2.58693        -3.24918

