%chk=CCc1ccc2cqcccs1rCdNCdCCdC2.chk
%NProcShared=20
# opt freq b3lyp/6-31g(2df,p)

Title Card Required 

0  1
C           0.97735         0.24523         0.03575
C           2.51582         0.49451         0.04309
C           3.37850         2.05072         0.04024
C           4.81929         1.90249        -0.05556
C           5.93652         3.04717        -0.14924
C           7.10440         3.89419        -0.23794
C           6.73224         5.30261         0.11627
C           5.65840         6.11078         0.12778
C           4.33595         5.60856         0.09090
C           3.02517         5.63200         0.11637
S           2.18914         3.75934         0.09109
C           7.84978         5.81260         0.91811
N           8.50868         6.90730         0.87443
C           9.87880         6.63560         1.01827
C          10.24625         6.80555        -0.24354
C           9.89005         5.23748        -0.81780
C           8.85164         4.08780        -0.61747
H           0.70475        -0.83823         0.01381
H           0.51530         0.66879        -0.85647
H           0.51402         0.63225         0.94398
H           2.87279        -0.09902        -0.82499
H           2.87723        -0.12705         0.88876
H           5.14715         0.86673        -0.00525
H           5.15097         3.50106         0.35575
H           5.89269         7.15335         0.27850
H           4.30372         4.60325         0.03754
H           2.55975         6.63673         0.17288
H           8.34074         4.99938         1.45588
H          10.38215         5.66208         1.29253
H           9.94344         7.88611        -0.39319
H          11.02258         5.20245        -0.89691
H           9.19305         3.07226        -0.32402

