%chk=CCC1dCNdCC2dC3CqdC13rCqCrdCCqdOrO2.chk
%NProcShared=20
# opt freq b3lyp/6-31g(2df,p)

Title Card Required 

0  1
C           1.07188         0.02295         0.05573
C           2.60044         0.03725         0.05102
C           3.20508         1.34957        -0.38712
C           4.35429         1.85272         0.10922
N           4.97386         3.03641        -0.25142
C           4.33134         4.16419        -0.39976
C           2.86301         4.53791        -0.24097
C           2.07726         3.47980        -0.46092
C           1.85433         3.19571        -1.75963
C           2.49713         2.15159        -1.31640
C           1.40236         3.92693        -2.83799
C           1.51882         3.34996        -4.19583
C           0.77149         5.07911        -2.54436
C           1.54912         6.17386        -1.87737
O           1.24604         7.32499        -2.19074
O           2.45646         5.85185        -0.86721
H           0.70141        -0.91399         0.48185
H           0.66712         0.10796        -0.95947
H           0.67349         0.84825         0.65550
H           2.96173        -0.78873        -0.57491
H           2.93276        -0.16734         1.07567
H           4.90208         1.24994         0.82960
H           4.95302         5.01506        -0.72361
H           1.96548         2.34813        -4.17606
H           2.13248         3.98108        -4.84391
H           0.51141         3.26009        -4.60491
H           0.09708         4.99005        -1.68015

