%chk=CCC1dNCdCCdC2CdCNdCCdC1CdC2.chk
%NProcShared=20
# opt freq b3lyp/6-31g(2df,p)

Title Card Required 

0  1
C           2.11128         0.30735         0.32515
C           4.37756         0.78844         0.74535
C           6.57130         1.74771         1.58212
N           4.92237         1.61333         1.46586
C           4.91412         2.52940         2.26593
C           6.02351         2.99679         2.67421
C           6.48649         3.83202         3.40391
C           7.64004         4.08943         3.62978
C           7.91353         4.98101         4.40757
C           9.08593         5.04778         4.46836
N           9.91466         6.14680         5.41330
C          11.11361         5.70963         5.00095
C          10.31284         4.20680         3.70813
C           8.55570         3.01954         2.68356
C           8.92830         1.91739         1.72993
C           8.90507         2.85265         2.54813
H           1.01112        -0.64415        -0.50599
H           0.88617         0.99074        -0.23750
H           0.88617        -0.15828         1.07796
H           3.42887         0.42461        -0.56624
H           3.42886        -0.56016         0.56117
H           4.10265         2.94137         2.62587
H           7.19623         2.64162         2.36453
H           5.83954         4.31584         3.82642
H           7.71412         5.64342         4.98588
H           9.35989         3.73149         3.33968
H          12.51177         5.62447         4.95749
H          11.08329         5.30368         4.76537
H           8.09027         1.49887         1.36582
H          10.29349         2.82957         2.52837

