%chk=CCC1dCCdCNdCqCCSr[SH]dNNdC1S.chk
%NProcShared=20
# opt freq b3lyp/6-31g(2df,p)

Title Card Required 

0  1
C           1.12079        -0.28179        -0.00097
C           2.60116        -0.71160        -0.13643
C           3.45840        -2.15259        -0.64015
C           4.66731        -1.66849        -0.37967
C           5.44838        -2.71750        -0.41333
C           6.74930        -2.73273        -0.46094
N           7.13431        -3.97847        -0.33547
C           8.14347        -4.53903        -0.85018
C           9.43177        -3.74644        -0.80127
C           9.02500        -2.29348        -0.49496
S           9.93285        -0.82542        -0.14644
S           7.37720        -6.16013        -1.32267
N           6.01901        -5.46488        -1.95261
N           4.47941        -5.17450        -1.27087
C           3.53295        -4.01097        -1.04166
S           1.80559        -4.46320        -0.69723
H           0.98246         0.80040         0.25980
H           0.62841        -0.80185         0.82018
H           0.60846        -0.38800        -0.95197
H           3.03199        -0.32966         0.83816
H           3.01081         0.11200        -0.78029
H           5.00947        -0.67647        -0.07634
H           5.24800        -3.73426        -0.38692
H           7.03194        -1.71620        -0.34924
H           9.92832        -3.71676        -1.75796
H          10.00676        -4.05868         0.07459
H           8.48475        -2.36136         0.49292
H           8.44341        -1.98015        -1.38976
H          10.31629        -1.37192         0.99845
H           8.16460        -6.61711        -2.35165
H           0.94992        -3.40041        -0.79756

