%chk=CCC1dCCdCCdCCdCCdCqCOrCdC1.chk
%NProcShared=20
# opt freq b3lyp/6-31g(2df,p)

Title Card Required 

0  1
C           1.37113         0.22708        -0.25525
C           3.26465         1.12178        -0.88641
C           4.42275         2.87929        -1.97094
C           4.63320         1.48322        -1.18674
C           5.29211         2.43680        -1.95353
C           6.53629         2.54528        -2.01828
C           7.24916         3.36564        -2.72921
C           8.39836         3.68330        -2.84582
C           8.57239         4.37772        -3.99182
C           9.77711         4.95858        -3.91017
C           9.50289         5.48450        -5.29003
C           9.83746         6.14045        -4.19102
C          12.07577         5.88482        -4.43102
O          12.24854         4.75537        -3.59919
C           7.62408         5.78778        -3.47011
C           5.91912         4.66054        -2.94667
H           0.80351        -0.79606         0.51159
H           0.72405        -0.12998        -1.10128
H           0.72335         0.93766         0.31727
H           3.09624        -0.54391        -0.63919
H           3.09319         0.37863         0.60040
H           5.18992         0.69064        -0.61276
H           5.37154         3.32792        -2.83411
H           7.04599         1.91905        -1.52919
H           7.12373         4.31423        -3.62253
H           9.05582         3.16839        -2.46127
H           7.14082         5.10511        -4.64450
H          10.61496         4.46437        -3.58641
H           9.19424         6.89776        -5.72114
H          13.29169         6.37696        -3.78962
H          13.27690         5.32844        -5.18481
H          11.66962         5.23961        -2.95758
H           8.89737         6.70626        -4.28356
H           4.38068         4.19201        -3.16340

