%chk=CCC1dCCdCCdCCdCSCd[SH]CdNN1.chk
%NProcShared=20
# opt freq b3lyp/6-31g(2df,p)

Title Card Required 

0  1
C           1.33194         0.35003        -0.03488
C           3.29028         1.41974        -0.30364
C           4.71542         3.41996        -0.70982
C           4.52206         1.76613        -0.41322
C           5.27836         2.95834        -0.74421
C           6.59305         3.10663        -0.70940
C           7.51474         4.34077        -1.68615
C           8.50682         4.77238        -0.92997
C           7.82881         5.47552        -1.67614
C           9.65011         5.52898        -1.51100
S           9.42943         8.06481        -2.13086
C          11.52659         7.80734        -1.96719
S          12.36979         9.15252        -2.44615
C          10.74700         7.04828        -1.82370
N           8.64960         6.60745        -1.37546
N           6.43395         5.15178        -0.84164
H           0.65882        -0.92713         0.30736
H           0.59116         0.29272        -0.93417
H           0.59103         0.75076         0.76945
H           2.98076        -0.23958        -0.65514
H           2.97943         0.14846         0.79915
H           5.05462         0.83892        -0.16624
H           5.70615         4.05914        -1.13088
H           6.95532         2.26846        -0.55893
H           6.52268         5.88458        -1.92692
H           8.74646         3.91270        -0.98778
H           7.45685         7.11160        -1.87421
H          10.59368         5.59423        -1.45468
H          12.66719         6.59196        -1.72045
H          12.66751        10.41487        -1.60809
H          12.72411         7.65952        -1.96482
H           4.92708         4.98889        -1.24859

