%chk=CCC1dCSCqCrdCdCqSrCdCCdC1.chk
%NProcShared=20
# opt freq b3lyp/6-31g(2df,p)

Title Card Required 

0  1
C           1.17083        -0.09141         0.59232
C           2.75494        -0.19487         1.30754
C           3.91647        -0.83767         2.68798
C           4.88029        -1.16506         1.82722
S           5.65917        -2.66755         2.04158
C           7.01293        -1.84055         2.65406
C           7.69747        -0.95431         1.71962
C           7.73482        -2.42074         3.61670
C           8.44642        -2.78238         4.58684
S           9.09913        -4.40272         4.53748
C           8.08803        -2.14171         5.85409
C           6.88545        -2.63236         6.16223
C           5.41834        -2.02196         5.45260
C           4.41087        -1.42006         4.38242
H           1.13020         0.46351        -0.40450
H           0.49230         0.51384         1.19341
H           0.71443        -1.04669         0.27645
H           3.12299         0.81896         1.02409
H           3.12837        -0.71889         0.36092
H           4.93390        -0.65905         0.86003
H           7.01585        -0.47189         1.01966
H           8.32167        -1.64441         1.15690
H           8.26039        -0.17573         2.22976
H           8.88403        -4.68770         3.23781
H           8.05557        -1.05751         5.87236
H           7.21033        -3.56114         6.77577
H           5.22413        -1.72431         6.52098
H           3.41725        -1.78029         4.67109

