%chk=CCC1dC2CdNNdCCdC2NdCCdCSCdC1.chk
%NProcShared=20
# opt freq b3lyp/6-31g(2df,p)

Title Card Required 

0  1
C           0.48144         0.02519        -0.15397
C           1.91657        -0.13205         0.00868
C           3.22835        -0.51790        -0.49883
C           4.22385         0.29975        -1.21469
C           4.59972         1.38615        -2.46935
N           5.72971         1.81999        -3.00559
N           7.09740         1.59435        -2.70969
C           7.51436         0.93429        -1.71845
C           6.73105         0.29404        -0.69756
C           5.49202         0.14895        -0.50083
N           5.22397         0.07761         0.83197
C           5.81113        -0.61911         1.69832
C           5.02685        -0.67504         2.93607
C           5.24954        -1.75321         3.66652
S           3.61912        -2.32268         4.09287
C           3.09939        -2.42010         2.09875
C           3.48318        -1.57855         0.95555
H           0.03290        -0.50452         0.71434
H           0.28484        -0.45786        -1.10006
H           0.32534         1.09442        -0.11083
H           1.72330        -1.22960        -0.01870
H           2.12288         0.46418         0.93355
H           3.75395         1.80425        -3.07569
H           8.58561         0.80963        -1.44412
H           7.36799        -0.08544         0.08512
H           6.72496        -1.23380         1.60125
H           3.95197        -0.35147         2.93790
H           6.18615        -2.32394         3.54229
H           3.86508        -3.18179         2.36640
H           3.49583        -0.55516         1.34344

