%chk=CCC1CdCCdCc2ccncc2CdCCdCCdCCdCCdCCdCC1.chk
%NProcShared=20
# opt freq b3lyp/6-31g(2df,p)

Title Card Required 

0  1
C           0.95146         0.12322        -0.10956
C           2.20398         0.60724        -0.88055
C           2.08941         1.23517        -2.91501
C           3.90728         0.67256        -2.12486
C           5.04644         0.08224        -2.67667
C           6.62789        -0.12997        -2.48276
C           7.43788        -0.31581        -3.57119
C           8.93923        -0.20353        -3.66121
C           9.69079        -0.97534        -2.77883
C          11.04482        -0.74861        -2.62796
N          11.74497         0.00319        -3.49219
C          11.02975         0.57621        -4.50481
C           9.62542         0.61382        -4.58249
C           8.92185         1.47347        -5.57157
C           7.59281         1.60849        -5.67468
C           6.82103         2.39224        -6.58738
C           5.47710         2.42142        -6.62255
C           4.74121         3.25182        -7.55842
C           3.40919         3.30652        -7.62313
C           2.76486         4.15146        -8.57453
C           1.47898         4.16100        -8.73210
C           0.82049         4.97213        -9.65817
C          -0.47374         4.73280        -9.63885
C          -0.56507         4.61839        -7.69907
C           0.07687         3.61887        -6.29264
C           1.01375         2.35552        -4.54476
H           0.77655         0.14595         1.02282
H           0.64216        -0.87416        -0.41205
H           0.46150         0.96740        -0.47733
H           2.79354        -0.45206        -0.11527
H           2.83409         1.11874         0.11700
H           2.13436        -0.07713        -2.71721
H           4.49387         0.30297        -0.90756
H           4.76923        -0.18078        -3.64144
H           7.22983        -0.01436        -1.57141
H           6.94585        -0.45967        -4.53418
H           9.20263        -1.74598        -2.20657
H          11.58821        -1.19890        -1.79893
H          11.64147         1.00150        -5.29844
H           9.51382         2.07501        -6.24246
H           6.93830         1.13581        -4.99326
H           7.39195         2.99409        -7.26676
H           4.90844         1.80414        -5.92668
H           5.30027         3.87170        -8.25452
H           2.81409         2.70136        -6.94462
H           3.25583         4.78881        -9.27348
H           0.91275         3.47800        -8.12013
H           1.20082         5.71850       -10.33217
H          -1.37184         4.11700        -9.64475
H          -0.94955         5.52651        -8.94811
H          -1.13936         4.08542        -7.04427
H           0.87026         2.71657        -3.47461
H           2.13505         2.21651        -4.56145

