%chk=CCC1dC2SCdCCdCCdCCdCCdCCdC12.chk
%NProcShared=20
# opt freq b3lyp/6-31g(2df,p)

Title Card Required 

0  1
C           2.22199        -0.36593         0.32984
C           4.70763        -0.91087         0.78618
C           7.21344        -1.77968         1.51373
C           7.41595        -2.65627         2.24788
S           5.13475        -2.72648         2.30661
C           7.15176        -3.04502         2.57336
C           7.46484        -3.98941         3.36420
C           8.67314        -4.05770         3.42141
C           9.39850        -4.70788         3.96588
C          10.52583        -4.71490         3.97176
C          11.14310        -5.53032         4.65460
C          12.18791        -5.29042         4.45371
C          13.51854        -6.18607         5.20374
C          15.14867        -5.91762         4.97893
C          13.64376        -5.30866         4.46898
C          11.65969        -3.96840         3.34664
C           9.59341        -2.90717         2.45791
H           0.86315         0.59325        -0.47340
H           0.72236         0.10423         1.04113
H           0.72236        -0.98361        -0.25791
H           3.39547         0.38578         0.56170
H           3.39547        -0.46219        -0.45091
H           8.45835        -2.02462         1.71885
H           6.71340        -4.33646         3.65485
H          10.15297        -3.76416         3.17559
H           8.97285        -5.27103         4.43747
H          11.06179        -3.25125         2.74607
H          11.15946        -6.21137         5.22493
H          13.27935        -4.08465         3.44397
H          13.36111        -7.03942         5.91835
H          16.05415        -5.33445         4.49058
H          14.67341        -6.63485         5.57956
H          13.32742        -4.82418         4.06325

