%chk=CCCCC1dNCdCCdNCdCCdCqCrCdC1.chk
%NProcShared=20
# opt freq b3lyp/6-31g(2df,p)

Title Card Required 

0  1
C           1.09984        -0.04454        -0.05672
C           2.67370        -0.08215        -0.03419
C           3.42366        -1.58351         0.86523
C           5.26727        -2.54215         1.43953
C           6.35317        -4.37786         2.53925
N           6.74291        -3.04936         1.74338
C           7.43461        -3.91071         2.25938
C           8.63358        -3.96099         2.28951
C           9.36419        -4.88149         2.84095
N          10.56173        -4.90591         2.85558
C          10.51686        -6.01315         3.51897
C          11.74388        -6.34527         3.71786
C          10.72227        -7.13127         4.18859
C          11.82885        -7.75350         4.56147
C          13.96822        -7.48100         4.39823
C           9.65920        -7.34822         4.31864
C           7.90409        -6.10539         3.57408
H           0.71162         0.84059        -0.58698
H           0.70541        -0.01754         0.95926
H           0.70541        -0.92760        -0.55986
H           2.96626         0.85596         0.43943
H           2.96626        -0.05714        -1.08478
H           2.77145        -2.20007         0.19732
H           2.77145        -1.28550         1.72397
H           5.17211        -0.91606         1.34950
H           5.17211        -1.69559         0.04826
H           7.55367        -4.87950         2.83974
H           9.06572        -3.23869         1.85680
H           9.19912        -5.69299         3.32708
H           8.88371        -6.66224         3.90795
H          12.72945        -6.05622         3.54469
H          10.44681        -8.62323         5.08241
H          14.18728        -6.55031         3.84069
H          15.12769        -7.93590         3.65342
H          15.12769        -7.03891         5.15073
H          11.34629        -8.10250         4.77071
H           6.47666        -5.86947         3.43279

