%chk=CCCdC1CdCCdCCdCCdC2CdC2S1.chk
%NProcShared=20
# opt freq b3lyp/6-31g(2df,p)

Title Card Required 

0  1
C           1.21977         0.05791         0.07758
C           3.13993         0.04556         0.21286
C           4.69133        -0.07792         1.50707
C           6.46868        -0.13313         2.03277
C           5.15118        -0.23388         3.10686
C           6.04764        -0.31550         3.96609
C           6.44617        -0.42845         5.18879
C           7.65858        -0.46418         5.55613
C           7.89842        -0.59143         6.88642
C           9.08148        -0.63040         7.28922
C          10.15226        -0.70529         8.08821
C          10.64056        -0.58117         6.79964
C          11.65083        -0.51497         6.06655
C          10.46396        -0.37847         4.84829
S           8.67469        -0.24171         3.14020
H           0.79515         0.16082        -1.00177
H           0.71491         0.91194         0.56742
H           0.71500        -0.87353         0.39705
H           3.10815         0.99424        -0.37422
H           3.10827        -0.77571        -0.54268
H           3.41760        -0.13685         2.11362
H           4.30622        -0.29949         3.83851
H           6.94614        -0.27814         3.61123
H           5.70451        -0.49262         5.84557
H           8.55077        -0.41398         5.01842
H           7.26608        -0.66331         7.63347
H           9.22096        -0.53571         6.27661
H           9.59360        -0.79976         9.06119
H          12.04874        -0.65849         7.48069

