%chk=CCCqCrqCrC1dCCSCCd[SH]1.chk
%NProcShared=20
# opt freq b3lyp/6-31g(2df,p)

Title Card Required 

0  1
C           0.93220         0.15086        -0.05735
C           2.45089         0.07867         0.02191
C           2.95355        -0.79167         1.19600
C           2.40924        -0.24752         2.55158
C           2.40367        -2.24064         1.08463
C           4.51345        -0.76134         1.20541
C           5.21296        -1.79566         0.68314
C           6.58358        -2.33922         0.81903
S           7.94213        -1.34062         1.40482
C           7.64198         0.21817         0.57504
C           6.67113         1.06587         1.29573
S           5.27429         0.49971         2.21215
H           0.61835         0.77026        -0.89940
H           0.51161         0.59012         0.85134
H           0.49634        -0.84242        -0.19299
H           2.84363         1.10012         0.11219
H           2.83854        -0.31413        -0.92785
H           1.32271        -0.33152         2.63484
H           2.63762         0.81483         2.69507
H           2.83762        -0.80340         3.39489
H           1.31794        -2.28490         1.20711
H           2.83470        -2.87875         1.86636
H           2.62208        -2.69258         0.11079
H           4.64420        -2.49992         0.07964
H           6.86463        -2.80464        -0.13327
H           6.48794        -3.16664         1.53435
H           7.38672         0.14374        -0.48498
H           8.58477         0.77423         0.63417
H           6.83709         2.15360         1.29351
H           4.45844         1.47279         1.85440

