%chk=CCCqOrC1dCCdCNdNNdCC1dN.chk
%NProcShared=20
# opt freq b3lyp/6-31g(2df,p)

Title Card Required 

0  1
C           1.15822        -0.05682        -0.09915
C           2.75663        -0.06253        -0.04747
C           3.64703        -0.04792        -1.37590
O           2.96679         1.03294        -2.17651
C           5.50720        -0.12190        -1.72374
C           5.42890        -0.09480        -3.03478
C           6.64635        -0.08465        -3.57229
C           7.02738        -0.07938        -4.80824
N           8.29989        -0.07011        -4.76921
N           9.43601        -0.09174        -5.12508
N          10.19066        -0.05904        -3.48388
C           9.24867        -0.04640        -2.20614
C           7.33606        -0.07217        -1.25970
N           7.19062         0.05093         0.04914
H           0.74057        -0.05229         0.92919
H           0.72852        -0.94627        -0.57973
H           0.72442         0.82792        -0.58535
H           3.00252        -0.95939         0.51363
H           2.98954         0.84703         0.50252
H           3.15096        -0.90026        -1.93252
H           2.97604         1.87372        -1.68584
H           4.56377        -0.06940        -3.64710
H           7.51569        -0.11559        -3.02523
H           6.44359        -0.08192        -5.64426
H           9.18866        -0.08339        -3.26340
H           6.15768        -0.05716         0.41814

