%chk=CCCqdNrC1dCC2dCCdCCdCCdCC2dN1.chk
%NProcShared=20
# opt freq b3lyp/6-31g(2df,p)

Title Card Required 

0  1
C           0.98353         0.02894         0.08000
C           2.51766        -0.03516         0.12792
C           3.14844        -1.06466         1.20740
N           2.28720        -1.62994         2.01602
C           4.83013        -1.09395         1.27411
C           5.23978         0.14560         1.30300
C           6.54429        -0.09792         1.72371
C           7.30117         0.39817         2.65803
C           7.17540         1.75601         2.25869
C           8.31785         2.31879         2.58198
C           8.60799         3.57430         2.01758
C           9.84101         3.30690         1.54432
C           9.79936         1.72821         0.76407
C           8.78436         0.27827         0.78827
C           7.43885        -0.97619         1.06453
N           6.18673        -1.83928         1.24277
H           0.61200         0.68859        -0.71534
H           0.58003         0.40376         1.02865
H           0.57308        -0.96916        -0.09976
H           2.86470         0.99821         0.28633
H           2.86881        -0.34513        -0.86005
H           1.28325        -1.40260         1.82838
H           4.84056         1.11375         1.25977
H           8.31039        -0.10658         2.88451
H           6.56826         2.18356         1.41319
H           9.20616         1.61057         2.80407
H           7.88426         4.15306         1.39999
H          10.89923         3.58953         1.91392
H           9.91912         2.91897         0.32472
H           9.29953        -0.65036         1.16994

