%chk=CCdC1CdC[SH]qdSrdCN1CS.chk
%NProcShared=20
# opt freq b3lyp/6-31g(2df,p)

Title Card Required 

0  1
C           0.88338        -0.00738         0.04281
C           2.37527        -0.07461         0.04170
C           3.18090        -0.67039        -0.85608
C           2.48305        -1.38007        -1.93186
C           2.98770        -2.04743        -2.95990
S           4.66521        -2.10859        -3.12265
S           5.16806        -3.88452        -3.09897
C           5.37573        -1.31001        -1.78312
N           4.59117        -0.66666        -0.81339
C           5.46479        -0.03859         0.20145
S           4.94634         0.95562         1.59344
H           0.55870         0.65204         0.85293
H           0.46802        -1.00103         0.22634
H           0.50644         0.41453        -0.89310
H           2.72680         0.42916         0.91592
H           1.39612        -1.39066        -1.89481
H           2.34561        -2.53023        -3.68953
H           5.02559        -1.51875        -4.27489
H           6.46875        -1.25077        -1.65927
H           6.14481         0.61718        -0.35617
H           6.08920        -0.83909         0.61791
H           4.13969         1.76980         0.89574

