%chk=CCdC1CdCCdCCdCCqCdSrdC1.chk
%NProcShared=20
# opt freq b3lyp/6-31g(2df,p)

Title Card Required 

0  1
C           1.17157        -0.03186         0.14899
C           3.10313        -0.39124         0.64890
C           4.33068        -1.25399         1.84900
C           4.98549        -0.59594         0.93363
C           5.42393        -1.25912         1.85613
C           6.99853        -1.01346         1.51441
C           7.64482        -1.69780         2.46634
C           9.04367        -1.87208         2.70877
C           9.52957        -2.57098         3.68095
C           8.00972        -2.65210         3.79380
C          10.15286        -3.03090         4.32072
S          12.28060        -3.19491         4.54886
C           6.15540        -2.07057         2.98487
H           0.74358         0.60600        -0.73829
H           0.70395         0.43929         1.01542
H           0.70395        -1.00324        -0.02161
H           3.15001         0.47552        -0.55679
H           5.31296        -0.06091         0.18939
H           4.98789        -2.34092         3.36094
H           7.76196        -0.63598         0.98933
H           6.77678        -2.66852         3.81664
H           9.75146        -1.45702         2.13141
H           8.82724        -3.36610         4.78698
H          11.01274        -3.75961         5.33436
H           4.34896        -1.88020         2.72006

