%chk=CCdC1CdCCdCCdNCdCqNrCNdC1.chk
%NProcShared=20
# opt freq b3lyp/6-31g(2df,p)

Title Card Required 

0  1
C           1.40909         0.01304         0.21878
C           3.30139         0.14440         0.96922
C           4.59200         0.37963         2.31548
C           5.04865         0.15705         1.03955
C           5.84555         0.32593         2.00292
C           7.18550         0.32853         2.01896
C           7.93091         0.52052         3.11214
C           9.26590         0.47956         2.88100
N          10.06433         0.62651         3.71985
C          11.20536         0.73692         4.35033
C          11.72569         1.02933         6.01927
N          11.19115         1.23547         7.19529
C          10.65712         0.88870         5.21652
N           8.41790         0.79616         4.69353
C           6.49384         0.65464         3.88982
H           0.87092        -0.19329        -0.95898
H           0.77854         0.93598         0.36031
H           0.77851        -0.80674         0.66567
H           3.26715        -0.11649        -0.52070
H           5.44012        -0.00581         0.11143
H           5.57159         0.51277         3.06063
H           7.64235         0.18014         1.17232
H           7.25203         0.81618         4.79396
H           9.87761         0.35277         2.15747
H          11.98102         0.60170         3.57834
H          10.19709         1.21474         7.07699
H          11.79926         1.36954         7.96047
H          12.27021         1.51887         5.03780
H          12.27025         0.23546         5.26271
H           4.93883         0.72488         4.28220

