%chk=CCdNCC1dC2CdNCdC3CdC3CdCCCqCrdNC2dC1.chk
%NProcShared=20
# opt freq b3lyp/6-31g(2df,p)

Title Card Required 

0  1
C           1.08329        -0.04119        -0.03009
C           2.59758        -0.00313        -0.01185
N           3.33278         1.02447         0.37616
C           4.76924         0.62840         0.17230
C           6.16602         1.27189         0.24592
C           7.38383         2.52218         0.59264
C           7.29179         3.97154         1.50492
N           8.44348         4.42196         1.65864
C           8.68170         5.62017         2.10204
C           9.93503         5.75130         2.14757
C          11.07833         6.37151         2.38378
C          11.26382         5.11339         1.90648
C          10.94641         3.79452         1.41324
C          11.68224         2.77143         1.02708
C          10.81124         1.67456         0.61607
C          10.71522         0.28192         0.08893
C          12.64991         0.32736         0.10503
N           9.19014         0.45264         0.22770
C           7.63905         1.19069         0.61744
C           6.24145         2.39848         0.85432
H           0.72588        -1.01676        -0.39848
H           0.69313         0.73139        -0.69609
H           0.69193         0.10138         0.97800
H           3.06431        -0.94999        -0.37416
H           4.85463         0.33895        -0.86576
H           4.91630        -0.18684         0.90151
H           6.36213         4.55379         1.70732
H           7.93586         6.34171         2.37026
H          11.18121         7.34003         2.74577
H           9.93820         3.41431         1.26947
H          12.73973         2.80875         1.04135
H          10.62787         1.87307        -0.46140
H          10.63032         1.11744         1.55707
H          13.16867         1.23771         0.45151
H          13.25692         0.29563        -0.84115
H          13.26015        -0.32523         0.80565
H           5.24524         2.70077         1.31161

