%chk=CCN1CdCdCdCCdNCdC2NdNNdC21.chk
%NProcShared=20
# opt freq b3lyp/6-31g(2df,p)

Title Card Required 

0  1
C           1.63833        -0.85297        -0.77679
C           3.10649        -2.14767        -1.75250
N           4.11687        -3.69223        -2.88151
C           4.71481        -2.33322        -1.93575
C           5.59370        -1.86895        -2.62926
C           6.11267        -2.51761        -3.43925
C           6.28335        -3.60399        -4.06701
C           6.40178        -4.97345        -3.08376
N           7.04743        -6.01938        -3.51731
C           6.35196        -7.17041        -3.63355
C           5.72161        -7.09683        -4.76265
N           6.32437        -8.66093        -5.13943
N           6.71651        -7.91764        -6.04329
N           5.83067        -6.13153        -5.50850
C           4.77584        -5.34964        -4.27361
H           1.25190         0.21242         0.26183
H           0.85152        -1.22642         0.00688
H           0.90609         0.09960        -1.23604
H           3.35470        -1.46978        -0.38745
H           3.37672        -0.66668        -1.35271
H           5.00650        -1.18738        -1.08499
H           6.23672        -3.44442        -5.14042
H           5.45054        -5.47016        -2.61811
H           5.96609        -8.09866        -3.25542

