%chk=CCqCOrC1dCCdNNdNCdCCdCCdC1.chk
%NProcShared=20
# opt freq b3lyp/6-31g(2df,p)

Title Card Required 

0  1
C           1.34228        -0.25649        -0.42411
C           3.22295        -0.80181        -1.35386
C           3.11514        -0.92076         0.77970
O           2.50962        -0.18892         2.20395
C           4.46683        -1.68370        -3.16117
C           4.57879        -0.98892        -1.77987
C           5.27355        -1.55569        -2.82366
N           6.51492        -1.43770        -2.61073
N           7.08689        -1.95843        -3.55458
N           8.19776        -2.02817        -3.71573
C           8.23819        -2.67416        -4.76511
C           9.56329        -2.84328        -5.20215
C           8.66837        -3.21370        -6.14022
C           9.71117        -3.65367        -6.79413
C           7.63137        -3.28040        -6.28716
C           6.02099        -2.53468        -4.94436
H           0.74184         0.37272         0.75974
H           0.63679        -1.11061        -0.12711
H           0.63786         0.45345        -0.96733
H           3.04689         0.55456        -0.48148
H           4.10647        -0.83684         1.16474
H           2.63530        -1.86149         1.10247
H           2.84314         0.71849         2.34846
H           5.10392        -0.50529        -0.87799
H           5.29868        -2.20188        -3.91610
H           6.79342        -3.29436        -5.46495
H          10.59061        -2.70399        -4.97496
H           8.34264        -4.05261        -7.64765
H          11.32778        -3.60280        -6.65377
H           9.25050        -3.94568        -7.04554
H           4.44871        -2.62099        -4.85613

