%chk=CCqdOrC1dCCdCCdCCdC1OCqCrOO.chk
%NProcShared=20
# opt freq b3lyp/6-31g(2df,p)

Title Card Required 

0  1
C           0.94964        -0.14869         0.15894
C           2.47227        -0.26502         0.34231
O           3.00687        -1.36755         0.20642
C           3.30925         0.95230         0.77680
C           2.81429         1.26816         1.97908
C           3.17736         2.03771         3.12827
C           4.23588         2.72960         3.50918
C           5.42165         3.15964         2.84315
C           5.85928         3.03752         1.59897
C           5.41751         2.35839         0.41129
C           4.46810         1.49403         0.00924
O           4.64378         1.21312        -1.38134
C           3.76878         0.34782        -2.09480
C           2.41175         1.02729        -2.21189
O           4.16499         0.04438        -3.44743
O           3.24521        -1.03904        -3.84741
H           0.62175        -0.93821        -0.52810
H           0.61934         0.79990        -0.27112
H           0.43655        -0.28580         1.11064
H           1.88178         0.77668         2.26699
H           2.42248         1.91878         3.91328
H           4.20996         3.06884         4.54860
H           6.06090         3.74561         3.51076
H           6.78681         3.59282         1.41035
H           6.11572         2.63796        -0.39097
H           3.83623        -0.62008        -1.61037
H           2.42090         1.81581        -2.96347
H           2.12350         1.55867        -1.30890
H           1.63761         0.30173        -2.47859
H           3.59062        -1.16451        -4.74536

