%chk=CCqOrC1dNC2dNNCdC3NdNNdCqOrC2dC3N1.chk
%NProcShared=20
# opt freq b3lyp/6-31g(2df,p)

Title Card Required 

0  1
C           1.19089         0.21552         0.21243
C           2.71115         0.39681         0.31714
O           3.13311         0.98393        -0.91669
C           3.54259         0.98166         1.62666
N           4.63620         0.27626         1.85671
C           5.14746         0.70670         3.03999
N           4.61895         0.17590         4.12003
N           4.56512         0.88509         5.31681
C           4.86509         2.22400         5.54101
C           4.95061         3.19232         4.58468
N           5.95887         4.15580         4.77394
N           7.08269         4.19320         4.17311
N           7.24248         3.90350         2.77506
C           6.64158         2.84677         2.30198
O           6.69180         2.45045         1.02000
C           5.69259         2.04034         2.96994
C           4.58891         2.78438         3.16286
N           3.31093         2.17439         2.50297
H           0.92057        -0.24021        -0.76294
H           0.66546         1.17131         0.22550
H           0.77625        -0.45101         0.97403
H           3.07575        -0.64492         0.22587
H           2.74597         1.86959        -0.97001
H           3.96567         0.47806         6.03840
H           5.29656         2.34530         6.54253
H           6.99912         3.12037         0.39607
H           2.63811         1.95138         3.24442

