%chk=CdC1CdCSC2dCNdCC2dCCd[SH]N1.chk
%NProcShared=20
# opt freq b3lyp/6-31g(2df,p)

Title Card Required 

0  1
C           1.34856        -0.13604         0.07763
C           2.68534        -0.07080        -0.10419
C           3.22200         1.20178        -0.59586
C           4.49321         1.55694        -0.34222
S           5.33997         2.76176        -1.24084
C           6.95272         2.14259        -1.21968
C           8.02850         2.94935        -1.19391
N           9.26010         2.31784        -1.11712
C           8.96528         1.05132        -1.10345
C           7.49523         0.77817        -1.20796
C           6.98114        -0.45345        -1.29341
C           5.55087        -0.60784        -1.65974
S           4.41154        -1.89924        -1.13228
N           3.62681        -1.08104         0.19230
H           0.69762         0.69232        -0.21178
H           0.81643        -0.98416         0.49751
H           2.57522         1.80135        -1.23189
H           5.07094         0.92638         0.33018
H           7.99536         4.03496        -1.20770
H           9.70945         0.24028        -1.05139
H           7.60042        -1.34736        -1.22557
H           5.15819         0.14054        -2.36153
H           5.21888        -2.77399        -0.57261
H           3.24030        -1.72625         0.88495

