%chk=CdC1CdCSCdCCdCCdCCdCCdC1SS.chk
%NProcShared=20
# opt freq b3lyp/6-31g(2df,p)

Title Card Required 

0  1
C           3.30361        -0.15732         0.50842
C           5.40363        -0.39044         1.05484
C           3.40287        -0.48885         1.28547
C           4.92740        -0.53846         1.40175
S           5.26403        -1.22896         3.02018
C           6.86507        -1.11700         2.75777
C           7.87820        -1.40741         3.43844
C           9.13029        -1.36642         3.34237
C          10.06443        -1.71691         4.16387
C          11.13288        -1.54845         3.76902
C          12.08658        -2.07907         5.01270
C          13.25042        -1.86332         4.50702
C          12.54620        -1.33530         3.26942
C          10.27968        -0.84021         2.10891
C           8.09026        -0.48021         1.26526
S           6.49005         0.41689        -0.83746
S           4.38430         1.31003        -2.93080
H           1.47392        -0.25360         0.73409
H           1.65005         0.16155        -0.23895
H           2.55988        -0.84471         2.11957
H           6.46588        -0.18177         0.56573
H           6.79847        -0.73991         1.87392
H           7.61347        -1.77636         4.30320
H           9.08722        -0.83317         2.09250
H           9.96487        -2.09061         5.03974
H          11.66063        -0.83119         2.08786
H          12.31715        -2.46754         5.92321
H          14.26842        -1.43127         3.49438
H          13.73890        -1.94083         4.68869
H          12.16670        -1.15121         2.83799
H           3.21253         2.01818        -4.59061

