%chk=CdC1C2dCCdCCdC1CdCCdCCdC2.chk
%NProcShared=20
# opt freq b3lyp/6-31g(2df,p)

Title Card Required 

0  1
C           1.12250         0.24415        -0.00444
C           2.35443         0.94812         0.08448
C           3.10400         2.24417        -0.38501
C           4.82997         2.19371        -0.30224
C           5.71487         1.01429        -0.06670
C           5.15887        -0.14790         0.00696
C           3.57627         0.72494         0.44076
C           3.15918         2.46415         0.77347
C           2.95769         4.76987         0.84290
C           1.90038         6.08468         0.38088
C           2.43000         5.40302        -0.73360
C           1.10961         4.88838        -0.43606
C           1.85086         3.78173        -0.53510
C           1.39426         2.67142        -0.26618
H           0.25387         0.80650        -0.01922
H           0.68535        -0.79724        -0.02163
H           5.22427         3.10245         0.00119
H           6.73380         1.20377        -0.04167
H           5.98437        -1.06430         0.00287
H           3.91885        -0.62496         0.00767
H           2.58808         6.29739         0.57715
H           0.68547         6.89665        -0.01029
H           3.60260         6.26832        -0.34612
H           0.11695         5.02544         0.06997
H           3.37191         3.89492        -0.55006
H           0.42427         2.32362        -0.00302

