%chk=CdC1CdCqCrCqdOrNdCCdCCdCNdN1.chk
%NProcShared=20
# opt freq b3lyp/6-31g(2df,p)

Title Card Required 

0  1
C           2.78004         0.05799         0.37501
C           4.47145         0.29039         1.08659
C           3.25888         0.50560         1.71555
C           4.61000         0.46269         1.58446
C           5.44949        -0.15618        -0.26710
C           4.97530         0.93298         2.99724
O           4.21500         1.22225         3.85911
N           6.19858         1.01582         3.21962
C           6.84969         1.33425         4.17209
C           8.15700         1.36098         4.00860
C           9.13842         1.56963         4.85012
C          10.96631         1.37959         4.35101
C           9.75342         1.11478         3.86472
N           8.14927         0.67462         2.47440
N           6.51327         0.41387         1.50528
H           1.35878         0.21676         0.84593
H           1.56368        -0.19325        -0.37685
H           2.51976         0.73743         2.40788
H           4.51719        -0.35826        -0.87082
H           5.89122        -1.03100         0.20265
H           5.89144         0.82461        -0.41663
H           6.49178         1.61346         5.03909
H           9.30977         0.96993         2.70798
H           8.90054         1.88158         5.84036
H          11.73643         1.14263         3.60542
H          10.50545         1.68788         5.30024

