%chk=CdC1CdCCqCrdCCC2dNN2CdCCdCCdC1NN.chk
%NProcShared=20
# opt freq b3lyp/6-31g(2df,p)

Title Card Required 

0  1
C           1.68720         0.31359        -0.37772
C           3.08100         0.32129        -0.38466
C           3.36424        -0.74797         0.57124
C           4.57651        -1.10218         0.88716
C           4.99024        -2.12796         1.80591
C           4.21036        -3.04978         2.63157
C           6.29978        -2.21857         1.88688
C           7.30047        -3.01197         2.59741
C           8.61866        -2.54461         2.17848
N           9.83616        -2.78128         2.39132
N           9.56522        -1.74894         1.46580
C           8.91172        -0.86252         0.67172
C           9.01489         0.13810        -0.22425
C           7.68609         0.66457        -0.69389
C           7.12652         1.56908        -1.49944
C           5.49339         1.72416        -1.64801
C           4.09549         1.36219        -1.32818
N           3.08128         2.07633        -2.02074
N           3.18383         3.12858        -2.87806
H           1.09926        -0.38732         0.24815
H           0.92825         0.88790        -0.89664
H           2.57298        -1.31044         1.07347
H           5.29013        -0.50379         0.34948
H           3.13976        -2.92551         2.52010
H           4.49986        -2.88050         3.67485
H           4.49997        -4.06821         2.34897
H           6.63119        -1.49396         1.23579
H           7.16436        -4.07143         2.35049
H           7.16461        -2.88245         3.67757
H           7.89894        -0.95939         0.75787
H           9.99830         0.47140        -0.52319
H           6.84118         0.18062        -0.26531
H           7.86001         2.19604        -2.06605
H           5.61139         2.54076        -2.39326
H           2.12854         1.82100        -1.79219
H           4.15227         3.30300        -3.08908
H           2.82733         3.96749        -2.41978

