%chk=CdC1CdCCdNCdNCdCCdCCdCC1dO.chk
%NProcShared=20
# opt freq b3lyp/6-31g(2df,p)

Title Card Required 

0  1
C           3.19548        -0.62037         0.46723
C           5.22045        -1.28281         0.97373
C           3.24130        -1.25979         0.96509
C           4.70647        -1.40747         1.08004
C           5.08768        -2.57952         1.99831
N           6.23736        -2.65166         2.05380
C           7.07235        -3.38481         2.62735
N           8.24690        -3.33656         2.58959
C           8.65871        -4.29730         3.34139
C           9.84740        -4.39317         3.41630
C          10.84944        -5.20932         4.05483
C          11.33086        -4.05892         3.15466
C          11.27543        -4.76183         3.66318
C           9.87103        -3.20038         2.50273
C           7.72094        -2.02346         1.56511
O           7.25206        -0.87596         0.66488
H           1.37834        -0.73867         0.55662
H           1.63152         0.11257        -0.10677
H           2.54478        -1.93287         1.49147
H           5.67803        -0.29733         0.21266
H           4.46760        -3.05133         2.36657
H           6.64916        -4.01691         3.12203
H           8.62642        -5.03700         3.92012
H          11.01705        -3.11418         2.41567
H          10.74762        -6.09221         4.74575
H          12.89822        -4.18228         3.25140
H          12.27033        -5.86117         4.58834
H          11.95719        -3.21980         2.49859

