%chk=CdC1CdCCdNC2dCCdC1CdNNCCCC2O.chk
%NProcShared=20
# opt freq b3lyp/6-31g(2df,p)

Title Card Required 

0  1
C           4.00857        -0.40956         2.68588
C           5.64676        -1.04600         3.50320
C           4.32666        -1.23423         1.99169
C           4.70606        -1.26303         0.65498
C           5.39307        -2.20502         1.48476
N           6.64437        -2.07698         1.66663
C           7.16853        -2.93510         2.56031
C           8.47753        -2.75362         2.54453
C           8.85863        -2.68240         3.81199
C           7.60368        -1.52980         4.26542
C           9.29100        -1.59825         5.74213
N           9.98252        -2.31428         7.14413
N           9.86958        -3.68956         7.13405
C           8.46552        -3.36983         7.04615
C           8.02691        -3.80046         5.75269
C           6.68870        -3.42518         5.30535
C           6.43409        -3.70326         3.79545
O           5.03512        -3.62787         3.77008
H           3.04862        -0.27120         1.39701
H           2.56999        -0.43206         2.04044
H           2.95597        -1.86909         1.78086
H           5.05110        -0.30641         0.24060
H           4.70322        -2.79895         2.24505
H           9.13881        -2.08490         2.06350
H           9.23008        -4.09277         3.60156
H          10.67499        -2.23456         6.20980
H          10.54114        -3.86457         6.30858
H           8.21747        -2.19381         7.22294
H           7.99086        -3.88513         7.77628
H           8.56853        -4.59790         5.29244
H           8.41738        -2.97000         5.40120
H           6.39169        -2.37954         5.57431
H           6.15362        -4.00569         5.98859
H           6.72099        -4.72036         3.61153
H           4.80768        -2.69490         3.95591

