%chk=CdC1CdCCdCCdCCdCCdC1.chk
%NProcShared=20
# opt freq b3lyp/6-31g(2df,p)

Title Card Required 

0  1
C           2.47440         0.09747        -0.30049
C           4.30885         0.46090        -0.85970
C           3.14591         0.87135        -1.43775
C           4.46882         0.91218        -1.49550
C           5.05904         1.59136        -2.48974
C           6.40021         1.73104        -2.69167
C           6.72053         2.42576        -3.73356
C           7.08009         1.66873        -2.75954
C           8.33707         2.56219        -3.89489
C           9.89809         2.23598        -3.67570
C           8.40270         1.84536        -2.39870
C           6.65792         0.80517        -1.37598
H           0.94134         0.40221        -0.74905
H           1.11403        -0.41894         0.45171
H           2.52675         1.31677        -2.09089
H           5.54985         0.37459        -0.69784
H           4.57134         2.05368        -3.17059
H           7.71670         1.03381        -1.66765
H           6.73230         2.96558        -4.49905
H           8.70777         0.97082        -1.72777
H           8.79973         3.29968        -4.99297
H          11.27293         2.32355        -3.52462
H           9.66214         2.31682        -3.52759
H           6.41090        -0.06934        -0.05262

