%chk=CdC1CdCCdCCqSrdCc2sccc21.chk
%NProcShared=20
# opt freq b3lyp/6-31g(2df,p)

Title Card Required 

0  1
C           3.69540        -0.26983        -1.96396
C           5.14954         0.24561        -2.90845
C           3.97654         1.01831        -1.73692
C           4.90884         1.33272        -0.85834
C           5.43472         2.21200        -1.86588
C           6.72378         1.96948        -1.82062
C           7.32001         2.84708        -2.73589
S           6.22404         3.29272        -4.62527
C           8.58922         2.29999        -2.71672
C           8.38415         1.88368        -3.93364
S           8.91065         3.98967        -4.43569
C           9.38619         3.23948        -5.87125
C           8.32233         1.86805        -5.20480
C           6.91667         0.94229        -4.02684
H           2.77483        -0.17563        -0.69005
H           2.29682         0.17792        -1.39676
H           2.85651         1.48085        -2.15486
H           5.24237         0.31763        -0.34516
H           4.82780         2.13753        -2.97797
H           7.19130         0.95618        -1.44569
H           5.08472         2.67694        -4.50633
H           9.30193         1.56476        -2.36752
H           9.81764         4.46073        -6.39266
H           9.74513         1.87832        -5.57607

