%chk=CdC1C2dCc3ccccc3OC2dC1C.chk
%NProcShared=20
# opt freq b3lyp/6-31g(2df,p)

Title Card Required 

0  1
C           0.71683         0.05246        -0.31299
C           2.03370         0.11826        -0.43088
C           3.08882         0.51127        -1.28003
C           4.18721         0.17734        -1.93006
C           5.11769         1.28918        -2.19923
C           6.28421         1.04752        -2.91156
C           7.00418         2.09365        -3.46013
C           6.51939         3.39361        -3.30680
C           5.40809         3.66280        -2.43416
C           4.76503         2.58255        -1.75572
O           3.91509         2.59917        -0.54541
C           3.31531         1.44436        -0.24036
C           3.03203         0.37633         0.69995
C           2.67845        -1.17040         1.40229
H           0.09317         0.61490        -0.99162
H           0.27644        -0.35178         0.59951
H           4.62317        -0.80378        -1.78997
H           6.61701         0.02449        -3.03012
H           7.90224         1.86838        -4.03351
H           7.05744         4.18198        -3.84561
H           5.11344         4.71317        -2.38367
H           3.54580        -1.69188         1.82994
H           2.19213        -1.89791         0.71451
H           1.99308        -1.02956         2.25121

