%chk=CdC1CCqdCrC1SSCSSSS.chk
%NProcShared=20
# opt freq b3lyp/6-31g(2df,p)

Title Card Required 

0  1
C           1.11307         0.07511         0.04844
C           2.45196         0.02556         0.03492
C           3.53186         1.10884         0.01664
C           4.39556         0.00926        -0.60901
C           5.48879         0.04885        -1.38311
C           3.49923        -1.10585        -0.02446
S           3.09642        -2.52699        -1.16597
S           1.96887        -3.76690         0.05573
C           1.61561        -5.25265        -0.98008
S           0.53403        -6.40231        -0.02759
S           0.22379        -8.00296        -1.29411
S          -0.99149        -9.30009        -0.23817
S          -1.32136       -10.91457        -1.47059
H           0.59446         1.02654         0.05523
H           0.53069        -0.83802         0.02321
H           3.86096         1.46261         1.00305
H           3.33460         1.99110        -0.60203
H           5.92071         0.99949        -1.67871
H           5.94329        -0.86533        -1.74512
H           3.83727        -1.46685         0.95605
H           2.55762        -5.75320        -1.21989
H           1.09911        -4.93996        -1.89159
H          -2.10955       -11.67042        -0.68374

