%chk=Cdc1nc2c3cqc1dCCdC2NrdCCdCCdCCd3.chk
%NProcShared=20
# opt freq b3lyp/6-31g(2df,p)

Title Card Required 

0  1
C           0.92519         0.11743        -0.25061
C           2.28380         0.09950        -0.46261
N           3.43863         0.66656        -1.27251
C           4.83998         0.60068        -0.64383
C           5.34737        -0.81346         0.43379
C           3.98313        -1.00638         0.56408
C           2.98331         0.60251         0.67709
C           3.06324         2.17462         0.52985
C           4.28955         3.00091         0.07419
C           5.31601         2.17094        -0.20459
N           6.62029         2.51587        -0.16021
C           3.95884        -1.97116        -0.56039
C           3.78317        -3.44913        -0.55987
C           4.82906        -4.33247        -0.76184
C           4.82241        -5.04257         0.54301
C           5.78632        -3.96604         0.96182
C           6.13486        -2.27010         0.62914
H           0.27715         0.97468        -0.06009
H           0.36229        -0.83839        -0.08262
H           2.24992         2.93437         0.13108
H           4.42307         4.13664         0.04872
H           6.96738         3.47061        -0.04446
H           7.23647         1.72830        -0.07198
H           4.97718        -2.21073        -1.10619
H           2.86720        -3.78074        -0.05189
H           5.99678        -4.27655        -1.03605
H           3.92806        -5.63918         0.13045
H           6.49296        -4.99622         0.75471
H           7.11516        -1.94309         0.14089

