%chk=Cdc1cc2nnc1dCC1dCC2dCCqCrdCNdC1.chk
%NProcShared=20
# opt freq b3lyp/6-31g(2df,p)

Title Card Required 

0  1
C           2.02376         0.03532        -0.68681
C           3.24802         0.64469        -0.85759
C           3.10597         1.59583         0.21096
C           4.25742         1.63179         0.87173
N           5.09860         0.49357         0.96715
N           5.21029        -0.28246        -0.04716
C           4.92136         0.38023        -1.23894
C           6.12936         1.22275        -1.40273
C           6.49397         2.66262        -0.88346
C           5.33253         3.25156        -0.90427
C           4.71568         2.96006         0.44805
C           4.31964         3.98267         1.13085
C           4.74412         5.26191         0.63434
C           3.68410         5.94841        -0.18758
C           6.07408         5.48794         0.57089
N           7.09926         4.58938         0.91733
C           7.27826         3.39582         0.33852
H           1.19832         0.64244        -0.21506
H           1.62203        -0.96932        -0.72273
H           2.46049         2.45101         0.02095
H           6.70571         1.17489        -2.33369
H           4.75378         3.07737        -1.81407
H           3.66292         3.84830         1.98675
H           2.81105         5.29360        -0.36655
H           4.05403         6.18433        -1.19463
H           3.33638         6.84441         0.31548
H           6.39025         6.46784         0.21615
H           8.13743         2.84587         0.76955

