%chk=CdC1CdCCdCCdCC2dCC2dCCdC1.chk
%NProcShared=20
# opt freq b3lyp/6-31g(2df,p)

Title Card Required 

0  1
C           1.52647         0.25555         0.19350
C           2.96428         0.84423         0.62583
C           3.65673         1.19595         2.01346
C           5.07533         0.74128         1.10750
C           6.04168         1.49875         1.54778
C           7.26735         1.63453         1.59583
C           7.72721         2.47402         2.46095
C           8.97089         2.66988         2.66732
C           9.19327         3.59690         3.60827
C          10.19703         4.11208         4.12986
C           8.24246         4.29951         4.36303
C           6.47888         4.01001         4.05611
C           4.91748         3.22636         3.02709
C           3.75278         2.22071         1.77101
H           0.59528         0.64616         0.63242
H           0.84693        -0.53525        -0.61179
H           2.25923         1.51187         1.66658
H           5.26492         0.19737         0.13711
H           5.55969         2.07472         2.12321
H           7.54511         0.96905         0.94446
H           6.81577         2.81091         2.81157
H           9.51580         2.05576         2.04472
H          11.38784         3.58221         3.59515
H           7.34127         3.69978         3.68554
H           5.01942         4.06175         3.97682
H           3.66939         1.12584         0.54495

