%chk=CdC1SCCdCdCCdCCdCNdCC1dNN.chk
%NProcShared=20
# opt freq b3lyp/6-31g(2df,p)

Title Card Required 

0  1
C           2.87896         0.76009         0.11763
C           4.44966         0.78965         0.42042
S           3.83050        -0.91233         1.17815
C           5.39025        -1.22916         0.78422
C           5.91335        -2.32112         1.49120
C           7.18468        -2.24861         1.57357
C           8.45024        -2.13393         1.44667
C           9.15090        -0.98826         1.85362
C          10.47433        -1.02895         2.02536
C          11.14016         0.12100         2.62571
C          11.48633         0.72908         1.51721
N          10.04629         1.27307         0.81280
C           8.50009         1.43435         0.49860
C           6.27003         1.44949         0.20568
N           5.84513         2.45126        -0.77987
N           4.25451         2.56251        -1.33225
H           2.01900        -0.06872         0.44014
H           1.94239         1.15196        -0.37719
H           5.70297        -0.39371         1.41333
H           5.44730        -1.16902        -0.30559
H           5.26122        -2.94024         2.07945
H           8.99122        -3.03942         1.29534
H           8.60408        -0.08829         2.12077
H          11.09696        -1.81020         1.58342
H          10.49830         0.90326         3.02816
H          12.61382         0.09988         1.39039
H           9.19219         2.42177         0.36889
H           3.41539         3.21032        -1.67553
H           4.56144         3.03466        -2.18866

