%chk=CdC1[C]dCCq[SH]dCdNrdC1.chk
%NProcShared=20
# opt freq b3lyp/6-31g(2df,p)

Title Card Required 

0  2
C           0.91629         0.04465         0.02962
C           2.24678         0.01838         0.01457
C           3.13591         1.11930         0.02595
C           4.38722         0.76204         0.01824
C           4.40114        -0.69123        -0.01347
S           5.75169        -1.80174         0.10064
C           7.00652        -0.83889        -0.02064
N           8.00772        -0.22236         0.02335
C           3.12524        -1.13493        -0.00376
H           0.36392         0.97881         0.04240
H           0.33745        -0.87370         0.02842
H           5.23428         1.42675         0.04273
H           5.72415        -2.39516        -1.07323
H           8.25094         0.25936        -0.84647
H           2.77719        -2.15486         0.03093

