%chk=CdC1CCdCCdCCdCqSrCdCCdCdN1.chk
%NProcShared=20
# opt freq b3lyp/6-31g(2df,p)

Title Card Required 

0  1
C           3.54552        -0.24736        -0.13263
C           5.58139        -0.58937        -0.36379
C           3.57976        -1.08245        -0.70181
C           5.08681        -0.99837        -0.65990
C           5.36422        -2.09051        -1.39289
C           6.57698        -1.83074        -1.21383
C           7.38817        -2.62556        -1.75258
C           8.61213        -2.32747        -1.54892
C           9.87266        -3.16395        -2.11799
S           9.69960        -4.53917        -3.05234
C          11.49611        -2.49775        -1.66576
C          12.42843        -3.44680        -2.31044
C          11.49124        -2.16500        -1.44036
C           9.72798        -1.47940        -0.97382
N           7.88395        -1.04279        -0.67182
H           1.86405        -0.55074        -0.34367
H           1.99042         0.29143         0.23023
H           2.98890        -1.04538        -1.78755
H           2.98903        -2.07636        -0.27066
H           5.13562         0.45358         0.33286
H           5.03710        -2.80855        -1.87680
H           6.89057        -0.39903        -0.24238
H           7.48158        -3.40170        -2.27989
H           8.98666        -0.75009        -0.47818
H           8.38856        -4.38973        -2.95082
H          12.43469        -1.31529        -0.86270
H          12.30558        -4.35255        -2.92557
H          13.19491        -2.39272        -1.59463

