%chk=CdC1CdCCdCCdCCdCCdCCdCCdCOO1.chk
%NProcShared=20
# opt freq b3lyp/6-31g(2df,p)

Title Card Required 

0  1
C           4.07461        -0.95638         0.79596
C           6.24619        -1.51616         1.19757
C           4.11758        -1.35861         1.08454
C           5.58713        -1.13710         0.92562
C           5.35958        -2.67321         2.02767
C           7.07100        -2.52716         1.92289
C           7.43475        -3.46071         2.59266
C           8.98075        -3.62664         2.71170
C           9.21205        -4.54148         3.36804
C          10.33583        -4.51023         3.34562
C          11.26934        -5.77396         4.25227
C          11.92743        -5.04588         3.72992
C          12.99675        -6.35257         4.66738
C          14.08931        -5.57686         4.11086
C          14.58165        -6.46691         4.74942
C          13.47825        -4.99532         3.69365
O          11.29464        -3.65338         2.73089
O           8.77546        -2.47510         1.88555
H           2.21943        -0.73510         0.63721
H           2.49119        -0.13368         0.20573
H           2.67529        -1.81821         1.41427
H           5.14449        -0.11526         0.19251
H           4.45661        -2.96616         2.23785
H           7.43418        -1.07876         0.88376
H           6.73776        -3.98714         2.97034
H           9.91212        -2.41284         1.84088
H           8.79567        -5.13977         3.79728
H          10.62227        -3.02070         2.27698
H          10.67320        -6.28860         4.62148
H          12.82554        -4.09635         3.04869
H          13.10974        -7.15665         5.24426
H          15.63268        -5.01093         3.70484
H          15.19192        -7.83721         5.73251
H          15.24267        -5.82448         4.28851

