%chk=CdC1CdC2CdCCdCCdCCdCCdC12.chk
%NProcShared=20
# opt freq b3lyp/6-31g(2df,p)

Title Card Required 

0  1
C           1.80225         0.53015        -0.07622
C           3.46428         1.00993        -0.07112
C           3.86329        -0.40492        -0.07808
C           5.00956         0.27717        -0.07069
C           6.15586        -0.40749        -0.06129
C           7.00648         0.49861        -0.05377
C           8.29160         0.44159        -0.05361
C           9.00332         1.44540        -0.03049
C          10.28055         1.76467         0.06419
C           9.75276         3.05027         0.27228
C          10.83916         3.58216        -0.12326
C           8.94033         3.71260        -0.23542
C           6.94376         3.08386        -0.09392
C           5.15694         2.12076        -0.09720
H           1.01775        -0.65383        -0.07695
H           0.76506         1.02841        -0.07521
H           3.49846        -1.70474        -0.07918
H           6.50988        -1.35047        -0.05989
H           6.70928         1.42030        -0.04245
H           8.86938        -0.33290        -0.04650
H           8.29733         2.16049        -0.02677
H          11.09316         1.05669        -0.08408
H           9.89183         4.75981         0.27393
H          12.11655         2.86344        -0.01766
H          10.66494         4.09481        -0.38256
H           5.87711         3.62173        -0.06154

