%chk=CdC1CdNCdC2CCdCCqdN2rCdC1C.chk
%NProcShared=20
# opt freq b3lyp/6-31g(2df,p)

Title Card Required 

0  1
C           1.72136         0.02377         0.14384
C           3.07774        -0.04562        -0.05438
C           3.16786        -0.51432        -1.40339
N           4.33972        -0.60199        -1.68013
C           4.88295        -1.00016        -2.81979
C           6.18631        -0.95567        -2.68652
C           7.07890        -1.35514        -3.73315
C           8.45119        -1.16392        -3.25159
C           8.68380        -0.71059        -1.97239
C           7.54908        -0.26911        -0.70557
N           6.52412        -0.52855        -1.46725
C           6.09885         0.13230         0.45085
C           4.53657         0.25218         0.79708
C           3.54559         0.71457         2.12037
H           1.00445        -0.25274        -0.64954
H           1.10903         0.32052         0.99258
H           2.31841        -0.74598        -2.05872
H           4.30322        -1.30253        -3.64691
H           6.85231        -0.73121        -4.60270
H           6.87293        -2.40846        -3.94362
H           9.17064        -1.43890        -4.03951
H           9.77745        -0.65176        -1.81688
H           6.84067         0.40583         1.23261
H           3.90540         1.05366         3.09159
H           2.82131        -0.10634         2.37776
H           2.82138         1.51737         1.81070

