%chk=CdCC[SH]1CdCCdCCSC1d[SH]NdC.chk
%NProcShared=20
# opt freq b3lyp/6-31g(2df,p)

Title Card Required 

0  1
C           1.01382         0.04280         0.06000
C           2.34967         0.01210         0.04720
C           3.06892        -1.02439        -0.73993
S           4.77959        -0.80101        -0.48426
C           5.43590        -2.33165        -0.81629
C           6.73051        -2.67870        -0.78846
C           7.96325        -1.97563        -0.99419
C           8.36693        -0.76670        -0.57237
C           7.54777         0.19265         0.20815
S           6.79910         1.36292        -0.97412
C           5.36758         0.50047        -1.45175
S           4.30162         1.14393        -2.75674
N           5.07317         2.54589        -3.12240
C           4.47496         3.25077        -4.02129
H           0.47804         0.78585         0.63740
H           0.44234        -0.68488        -0.50864
H           2.90673         0.74609         0.62755
H           2.85191        -0.98807        -1.80808
H           2.81928        -2.01845        -0.35913
H           4.95121        -0.48332         0.80956
H           4.71835        -3.14288        -0.83440
H           6.89658        -3.75145        -0.67389
H           8.66457        -2.54222        -1.60939
H           9.36275        -0.42758        -0.84694
H           8.16195         0.74906         0.91965
H           6.84981        -0.34728         0.84825
H           3.30368         1.58937        -2.01524
H           4.94017         4.17897        -4.38571
H           3.50619         2.97706        -4.48054

