%chk=CdCC1dC2CdCC1dCCdCCdCC2dC.chk
%NProcShared=20
# opt freq b3lyp/6-31g(2df,p)

Title Card Required 

0  1
C           1.92095        -0.24399        -0.54861
C           3.54473        -0.35500        -0.72848
C           5.53857        -0.57900        -1.14389
C           4.43931        -0.62788        -1.60545
C           4.96079        -1.19655        -2.86066
C           6.23091        -1.37570        -3.25812
C           7.22144        -1.01761        -2.36382
C           8.97453        -1.15872        -2.81019
C           8.67893        -0.73546        -1.66178
C           9.06502        -0.25472        -0.55101
C           7.94215         0.05702         0.16038
C           6.71963         0.22234         0.52239
C           5.28849         0.03975         0.06322
C           4.69011         0.51500         1.22569
H           1.17752         0.20788         0.49722
H           0.86618        -0.41379        -0.95667
H           3.07991         0.08744         0.24001
H           4.22854        -1.49707        -3.51876
H           6.69105        -0.93534        -2.27231
H          10.27134        -0.94083        -2.22076
H           8.69889        -1.31999        -3.00919
H           9.89305        -0.00691        -0.01214
H           7.38156        -0.27185        -0.63179
H           6.98141         0.59750         1.43161
H           5.17790         0.87948         2.10150
H           3.66755         0.63130         1.50942

