%chk=CdCC1dCCdCCdNNdCC2dCCdCCdCC2dC1.chk
%NProcShared=20
# opt freq b3lyp/6-31g(2df,p)

Title Card Required 

0  1
C           1.75282        -0.67066        -0.31165
C           3.36424        -1.41226        -0.60573
C           4.92151        -2.76250        -1.34692
C           4.86876        -1.24332        -1.08035
C           5.54919        -1.47170        -2.23579
C           6.85225        -1.58762        -2.02928
C           7.64864        -2.30053        -3.05493
N           8.92048        -2.37603        -2.82145
N           9.43407        -2.78983        -3.98931
C          10.57202        -3.33817        -3.79090
C           9.90027        -4.55607        -4.25372
C          10.68743        -4.55622        -5.65999
C          11.37547        -5.53347        -6.83447
C          12.21938        -6.46435        -6.45306
C          11.54875        -6.40261        -4.71801
C          10.13836        -5.76105        -3.61933
C           8.32927        -4.73430        -3.09824
C           6.62590        -3.90838        -2.12346
H           0.89894         0.33164         0.45857
H           0.61078        -0.82950        -0.67658
H           3.24552        -0.13086         0.19376
H           5.17135        -0.42286        -0.30895
H           4.93204        -1.94641        -3.08017
H           7.25511        -1.24953        -1.09671
H           7.08940        -3.12881        -3.85649
H          11.27538        -3.15000        -2.94655
H          10.19424        -3.98765        -6.37029
H          11.10378        -5.52110        -7.89284
H          12.73209        -7.14053        -7.40924
H          12.94299        -6.97719        -5.02343
H          11.62217        -5.92840        -3.41341
H           5.28272        -3.76383        -2.52360

