%chk=CdCC1dCCdCqNrCqdNSOrNN1.chk
%NProcShared=20
# opt freq b3lyp/6-31g(2df,p)

Title Card Required 

0  1
C           1.10403         0.25618         0.03298
C           2.43508         0.24451         0.22498
C           3.04098        -0.44747         1.36400
C           2.63640        -1.70237         1.56245
C           3.28702        -2.71429         2.34217
C           4.12411        -2.63261         3.38311
N           4.62668        -3.80180         3.94585
C           4.51022        -1.30263         4.04953
N           4.98741        -1.47570         5.26497
S           5.45299        -0.19465         6.20730
O           6.12355        -1.10020         7.42969
N           4.33884        -0.06595         3.42890
N           4.03980         0.16119         2.10352
H           0.64878         0.64326        -0.87098
H           0.43287        -0.17428         0.77325
H           3.09068         0.64364        -0.54511
H           1.82792        -2.10864         0.95445
H           3.02745        -3.70947         1.99299
H           4.73176        -4.56333         3.28532
H           5.44865        -3.61330         4.52047
H           6.43492        -0.52829         8.16809
H           4.13952         0.68968         4.08303
H           4.66269         0.78148         1.58977

