%chk=CdCC1NCdC1SNCqCrCdNC[SH]dS.chk
%NProcShared=20
# opt freq b3lyp/6-31g(2df,p)

Title Card Required 

0  1
C           0.99286         0.22575        -0.00437
C           2.33021         0.11877         0.00809
C           3.01750        -0.95962         0.76844
N           4.31817        -1.24372         0.23871
C           3.96651        -2.42744        -0.20594
C           2.73058        -2.39288         0.37127
S           1.47714        -3.58369         0.44336
N           0.30615        -2.96229         1.49195
C          -0.83328        -3.86119         1.82508
C          -0.35201        -5.06691         2.62623
C          -1.93915        -3.16023         2.62736
N          -3.00548        -3.82944         2.90524
C          -4.06680        -3.19322         3.68242
S          -5.46971        -4.37912         3.87043
S          -6.70460        -3.41949         5.08068
H           0.48481         1.01833        -0.53887
H           0.36347        -0.46719         0.52110
H           2.92289         0.86626        -0.50631
H           3.08775        -0.74800         1.84027
H           4.92878        -0.55874        -0.18228
H           4.48134        -3.19214        -0.78572
H          -0.11265        -2.16849         1.02068
H          -1.30499        -4.18612         0.88834
H           0.06017        -4.75421         3.59173
H           0.41530        -5.63084         2.08872
H          -1.17686        -5.75955         2.81984
H          -1.79297        -2.10998         2.93533
H          -4.46007        -2.31285         3.16380
H          -3.71436        -2.91651         4.68246
H          -4.92973        -5.23070         4.71547

