%chk=CdCCqdCrC1dCNCdCCdCNCdCNCdC1.chk
%NProcShared=20
# opt freq b3lyp/6-31g(2df,p)

Title Card Required 

0  1
C           1.13189         0.09586         0.03622
C           2.96862         0.20893         0.40837
C           4.84383         0.59540         1.69275
C           2.94712         0.77073         2.23266
C           7.19126         0.87375         2.51240
C           5.38126         0.85788         2.51140
N           6.82393         0.91126         2.69302
C           7.33520         1.33019         4.05309
C           8.42241         1.33211         3.99413
C           9.07687         1.66774         5.13429
C          10.20187         1.59072         4.93428
N          11.34250         1.95152         6.09400
C          13.04818         1.54937         4.97030
C          12.50802         2.18927         6.91235
N          13.39097         1.90001         5.88837
C          11.61797         1.49376         4.53568
C           9.71744         1.12917         3.43424
H           0.44175        -0.19097        -0.89651
H           0.41315         0.34030         0.83025
H           2.87079        -0.18155        -0.86570
H           1.41812         0.79933         2.32124
H           2.89515         1.08540         3.25087
H           4.74727         1.10895         3.32801
H           7.67475         0.53152         1.45091
H           6.76806         1.49695         4.59019
H           9.50792         0.83806         2.36376
H           8.96590         1.91742         5.95519
H          11.16238         1.13910         3.45153
H          11.06363         2.24311         7.01108
H          14.09219         1.54946         4.74729
H          13.26966         2.53110         7.94909
H          15.02210         2.00093         6.23186
H          13.08331         1.98564         5.94919
H           8.68986         0.67398         1.92532

