%chk=CdCCqdCrSC1dCCdCqCr[SH]1S.chk
%NProcShared=20
# opt freq b3lyp/6-31g(2df,p)

Title Card Required 

0  1
C           1.06187         0.02164         0.02673
C           2.39514         0.17161         0.06690
C           3.11605         1.36516         0.52180
C           2.45474         2.40886         1.04760
S           4.85800         1.30682         0.32094
C           5.44330         2.75837         1.02061
C           5.14275         4.02938         0.69728
C           5.77656         5.03891         1.52838
C           6.63533         4.53435         2.43237
C           7.47017         5.18190         3.46455
S           6.62299         2.81815         2.28382
S           8.47331         2.21040         1.57157
H           0.60760        -0.89962        -0.32094
H           0.37266         0.79870         0.33555
H           3.00074        -0.67646        -0.25727
H           1.37562         2.44413         1.10753
H           2.92618         3.29275         1.44419
H           4.43226         4.31212        -0.07026
H           5.54253         6.08884         1.42585
H           7.35027         6.26795         3.48055
H           8.52655         4.95768         3.28251
H           7.20976         4.78939         4.45329
H           6.19959         2.23262         3.41682
H           8.56938         3.04446         0.52409

