%chk=CdCdCCC1dCCdCqNdNNdOrC1.chk
%NProcShared=20
# opt freq b3lyp/6-31g(2df,p)

Title Card Required 

0  1
C           1.09345        -0.07311         0.06777
C           2.39356        -0.09367         0.07814
C           3.69515        -0.11875         0.09106
C           4.52601        -0.42209         1.30814
C           5.99857        -0.34782         1.04845
C           6.73386         0.77270         0.93609
C           8.11610         0.42555         0.72504
C           8.26286        -0.90937         0.71843
N           9.45463        -1.55936         0.55614
N           9.44610        -2.80567         0.58194
N          10.73752        -3.32532         0.41005
O          10.73559        -4.56110         0.43036
C           6.90696        -1.55593         0.92569
H           0.52991        -0.26351         0.97378
H           0.54455         0.12026        -0.84711
H           4.21317         0.13974        -0.82901
H           4.26372        -1.41223         1.69788
H           4.27004         0.30057         2.09537
H           6.36218         1.78534         0.99550
H           8.90132         1.15554         0.60092
H           6.89258        -2.15358         1.84296
H           6.62521        -2.17238         0.06658

