%chk=CdCdC1CdCCqCrdCCdCCdCCdCC1.chk
%NProcShared=20
# opt freq b3lyp/6-31g(2df,p)

Title Card Required 

0  1
C           1.89848        -0.02749         0.01660
C           3.77141        -0.19772        -0.08065
C           5.66336        -0.51947        -0.31774
C           4.50927        -1.45146        -0.17690
C           5.73694        -1.74376        -0.14881
C           6.41694        -2.82098        -0.34059
C           5.69336        -3.94064        -0.53229
C           7.66773        -3.03846        -0.26896
C           8.14661        -4.13930        -0.59122
C           9.24989        -4.06550         0.08345
C          10.21445        -5.11494        -0.36609
C          11.00600        -3.84567         0.16004
C          11.06618        -4.45506        -1.08040
C           9.90587        -2.76538        -1.14415
C           8.01094        -1.29785        -0.66162
H           0.58894        -0.74013        -0.33862
H           0.62243         0.81513         0.40646
H           3.82514        -2.24401        -0.29708
H           6.70097        -1.42356         0.14541
H           4.67674        -3.71784        -0.49818
H           5.99737        -4.56771         0.28588
H           5.99889        -4.31252        -1.48933
H           8.68693        -2.43812        -0.18096
H           7.97408        -5.05654        -0.72185
H           9.82806        -2.56473         0.40831
H          10.17699        -6.19857        -0.90245
H          12.44633        -3.57281        -0.26562
H          11.81840        -6.03146        -0.90398
H          11.37830        -3.82820        -1.26965
H           7.15031        -0.03125        -0.64829
H           7.31214        -0.17210         0.34241

