%chk=CdCdC1CdCCdCCdCCdC1CdC.chk
%NProcShared=20
# opt freq b3lyp/6-31g(2df,p)

Title Card Required 

0  1
C           1.36223         0.09285         0.08705
C           2.98895         0.13481         0.17498
C           4.72164         0.28790         0.20604
C           4.56696         1.18748         1.17907
C           5.76094         1.48171         1.45404
C           5.93470         2.45808         2.27565
C           6.98181         1.72731         2.01940
C           7.94038         2.69707         2.74868
C           9.42264         2.36252         2.31376
C           8.44418         1.39433         1.10731
C           6.78017         0.11788         0.26419
C           5.43551        -0.86463        -0.91665
C           4.90377        -1.99806        -2.01734
H           0.56466         0.60550         0.79234
H           0.58351        -0.45026        -0.65650
H           3.81042         1.69441         1.68678
H           7.02132         1.04100         0.94832
H           5.91028         3.07813         3.09896
H           7.86649         0.52338         0.54624
H           8.03862         3.48706         3.49058
H          10.69415         2.09057         2.15382
H           9.23426         2.22559         2.23827
H           3.98280        -1.10943        -1.11989
H           5.56826        -2.57548        -2.58583
H           4.02089        -2.82321        -2.84344

