%chk=CdCdCdC1CdCqNdCrC1dO.chk
%NProcShared=20
# opt freq b3lyp/6-31g(2df,p)

Title Card Required 

0  1
C           1.30089        -0.01991         0.05208
C           2.60444        -0.02122         0.05249
C           3.81327        -0.01028         0.05245
C           5.10352         0.02321         0.05281
C           6.14804        -0.98250         0.05283
C           7.13511        -0.06258         0.05934
N           8.53790        -0.12225         0.06625
C           9.21209         0.97819         0.07121
C           6.16887         1.03734         0.05436
O           6.22899         2.25527         0.05200
H           0.72442        -0.37384         0.90294
H           0.72659         0.34612        -0.79535
H           6.15622        -2.06958         0.05078
H          10.31829         0.93294         0.07753
H           8.78176         1.99238         0.06987

