%chk=CdCqCrCqdOrC1dCCdCCdCqCrNOCqCrC1CC.chk
%NProcShared=20
# opt freq b3lyp/6-31g(2df,p)

Title Card Required 

0  1
C           1.06980         0.03303         0.04866
C           2.55272         0.06730         0.08560
C           3.09083         1.23028         1.34587
C           3.89614        -0.94661        -1.01410
O           2.79505        -1.54102        -1.65674
C           6.08385        -1.04295        -1.11651
C           5.27443        -1.77631        -1.90614
C           6.41331        -2.09765        -2.25967
C           7.30030        -2.66205        -2.87154
C           8.59925        -2.61984        -2.82583
C           9.25572        -3.35300        -3.62000
C           8.83851        -4.23675        -4.57769
N          10.41219        -2.97339        -3.20765
O          11.28353        -3.54822        -3.83200
C          10.47721        -2.30320        -2.51036
C          12.14333        -3.48946        -3.76788
C           8.36098        -1.24006        -1.27818
C           6.46079        -0.25519        -0.28981
C           5.67889         1.13833         1.24611
H           0.41534         0.65483         0.72239
H           0.42778        -0.58069        -0.61632
H           2.11213         1.48182         1.61843
H           3.24346         2.45370         1.37890
H           3.24346         1.16528         2.56802
H           4.58354        -2.29219        -2.47359
H           7.23268        -1.81993        -1.95964
H           6.80536        -3.21129        -3.46657
H           9.25379        -1.91479        -2.06237
H           7.80431        -4.09274        -4.42165
H           9.15595        -5.21257        -4.30058
H           9.15596        -3.88243        -5.52820
H          11.64935        -2.21291        -2.38416
H          12.04741        -2.85610        -3.08141
H          12.58124        -4.57126        -4.94026
H          13.39292        -4.53186        -4.00593
H          13.39291        -3.64322        -4.82611
H           7.75348        -0.32316        -0.33752
H           5.07587        -0.75326         0.33105
H           5.07489         0.37804        -0.71309
H           5.81332         0.98701         2.42410
H           4.70009         1.98302         2.16136
H           5.81329         2.32452         1.18974

