%chk=CdNCCdCqCrSC1dCqNdOrNdC1.chk
%NProcShared=20
# opt freq b3lyp/6-31g(2df,p)

Title Card Required 

0  1
C           1.04320        -0.09225         0.02127
N           2.32610        -0.04018         0.07797
C           2.96241        -0.92866        -0.88950
C           4.44240        -0.81007        -0.76036
C           5.32682        -1.49824        -1.50971
C           4.89452        -2.46692        -2.56450
S           6.98419        -1.17761        -1.16057
C           7.95090        -2.13631        -2.20450
C           9.29264        -2.21212        -2.28704
N          10.37784        -1.61342        -1.63513
O          10.05441        -0.80506        -0.75490
N           9.20293        -3.16797        -3.32787
C           7.92885        -3.11028        -3.26505
H           0.44321         0.53148         0.70045
H           0.48625        -0.73743        -0.68126
H           2.67448        -0.64383        -1.90840
H           2.67448        -1.96808        -0.69226
H           4.79710        -0.11164         0.00016
H           3.80745        -2.54592        -2.65052
H           5.25570        -3.47296        -2.33238
H           5.25570        -2.15018        -3.54718
H           7.08312        -3.57846        -3.77485

