%chk=CdNCqdNrC1dCNdCCdCCdCC2dCC2dN1.chk
%NProcShared=20
# opt freq b3lyp/6-31g(2df,p)

Title Card Required 

0  1
C           1.22218        -0.01428        -0.03651
N           2.81286        -0.13730        -0.01705
C           4.29738        -1.34445         0.17393
N           2.90666        -2.27526         0.32118
C           6.56375        -1.62684         0.21860
C           5.42220        -2.44469         0.34799
N           6.63423        -2.74841         0.39604
C           7.26629        -3.77920         0.55911
C           8.72626        -3.92695         0.58249
C           9.19143        -5.08174         0.76518
C          10.41874        -5.15422         0.77664
C          11.51655        -5.70275         0.86342
C          12.61663        -4.09145         0.60851
C          12.10851        -5.14848         0.77573
C          10.38199        -3.49886         0.51476
N           8.58951        -2.34643         0.33244
H           0.50180         0.96693        -0.19174
H           0.45278        -0.84955         0.09563
H           1.58465        -2.21845         0.31220
H           4.73966        -3.30676         0.48437
H           6.69433        -4.56143         0.68286
H           9.78842        -2.43708         0.34678
H           8.77051        -5.89529         0.89388
H          11.44264        -3.84267         0.56915
H          11.22866        -6.83271         1.04218
H          13.04192        -6.46842         0.98455

