%chk=CdNNdCSC1dCCdCCdCC1CdCC.chk
%NProcShared=20
# opt freq b3lyp/6-31g(2df,p)

Title Card Required 

0  1
C           1.03249         0.21784        -0.21485
N           2.30063         0.20416        -0.40695
N           2.82713         1.38860        -0.97923
C           4.08366         1.19847        -1.27577
S           5.17165         2.46682        -1.79703
C           6.88914         2.03063        -1.56809
C           7.78174         2.98938        -1.93598
C           9.24082         2.86434        -1.95889
C           9.94760         1.77485        -2.30287
C           9.37846         0.50108        -2.69476
C           8.25343        -0.00141        -2.16367
C           7.47545         0.69719        -1.05564
C           6.55054        -0.24383        -0.33684
C           5.90758         0.07169         0.80258
C           4.73268        -0.70460         1.30821
H           0.55888        -0.61170         0.34609
H           0.36498         1.01594        -0.57538
H           4.46220         0.18102        -1.19238
H           7.43461         3.96760        -2.26491
H           9.79214         3.77903        -1.73854
H          11.03591         1.83244        -2.34138
H           9.91528        -0.05214        -3.46403
H           7.87033        -0.93791        -2.56103
H           8.22148         0.94620        -0.28004
H           6.30219        -1.17329        -0.84716
H           6.08434         1.03911         1.27055
H           4.46937        -1.53078         0.63660
H           3.87659        -0.02702         1.35407
H           4.88547        -1.08516         2.31552

