%chk=CN1CCdCC2dNNNCC3dCqNrCdCCdCC2dC31.chk
%NProcShared=20
# opt freq b3lyp/6-31g(2df,p)

Title Card Required 

0  1
C           4.00202         1.06269         0.09029
N           6.07196         1.98790         0.56534
C           4.25420         1.47076         1.28943
C           5.54703         0.62412         1.35444
C           6.31462         1.57626         2.36811
C           7.97609         2.36168         2.05387
N           8.15760         1.12213         2.67677
N           9.32220         0.67465         2.24372
N          10.14207         1.46914         2.90216
C          11.42436         1.80372         2.12092
C          10.04781         2.75907         2.41458
C          11.46449         2.72556         3.74732
N          11.41827         1.82415         4.97863
C          13.07913         3.27210         4.82899
C          13.33646         4.58498         5.19690
C          12.09930         5.17242         4.18044
C          11.10985         4.60314         2.81194
C           9.37767         3.77557         1.87782
C           8.06817         2.54066         1.27430
H           2.77747         0.06360        -0.26760
H           2.43060         1.20029        -0.18921
H           2.57462         0.49045         0.70873
H           3.29491         0.61542         1.96694
H           3.13270         2.23336         0.90673
H           5.37688         0.01036         0.10605
H           5.41156         2.17521         2.47728
H           9.58510         0.92595         1.21736
H           9.92168         1.96786         3.86829
H          11.80000         2.24022         1.18016
H          11.81384         0.79927         2.36232
H          10.78053         1.18158         4.64378
H          11.45324         1.86693         6.02955
H          14.07007         2.74292         5.70629
H          14.15727         5.11093         5.96002
H          11.74028         5.87142         5.09795
H          11.68219         5.88026         2.68470

