%chk=CN1CCNdCdCCdCCdCCdCCdCCdNC2dCCdCCdCCdC21.chk
%NProcShared=20
# opt freq b3lyp/6-31g(2df,p)

Title Card Required 

0  1
C           6.49037        -2.82280         0.70999
N           9.46184        -4.35401         1.15239
C           6.74895        -2.78377         1.24596
C           5.21512        -0.70122         1.01158
N           5.72860        -1.13014         2.16885
C           6.85181        -1.10750         2.08052
C           8.16179        -1.22538         1.99483
C           8.93323        -2.40692         1.83593
C          10.29695        -2.51420         1.75922
C          11.08757        -3.78000         1.52388
C          12.35402        -3.71650         1.52798
C          13.12075        -4.60592         0.95222
C          14.54896        -5.01154         1.18845
C          15.21333        -6.02653         0.24534
C          16.69080        -6.17428         0.94002
C          16.94905        -7.42515         0.51222
N          17.72288        -7.46929         1.03117
C          15.30013        -7.36708         1.06594
C          17.41354        -8.75795         0.36286
C          19.43860       -10.35664         0.06413
C          20.01472       -11.83169         0.95868
C          18.38645       -10.77675         1.99970
C          16.86983        -9.06374         2.21951
C          14.70664        -7.26918         1.93239
C          12.33316        -5.88761         1.39734
H           4.50976        -1.62968         0.39441
H           4.36173        -1.79447         0.57795
H           4.40619        -1.94935         0.22362
H           4.65676        -2.30818         1.38371
H           4.84205        -1.60598         1.57748
H           5.04069         0.51220         0.92770
H           5.11322        -0.82926        -0.12569
H           8.69099        -0.34382         2.15419
H           8.26187        -3.34123         1.85204
H          10.81658        -1.63572         1.90903
H          10.60131        -4.73438         1.34616
H          12.93095        -2.91751         1.67377
H          11.97480        -5.99163         0.32795
H          15.07645        -4.20408         1.43551
H          14.23787        -7.19425         0.58292
H          17.21084        -5.46287         1.19625
H          16.37949        -8.64546         0.64364
H          18.57387        -9.80833        -0.88875
H          20.98356       -11.22698        -0.70327
H          20.74609       -12.74618         1.08124
H          18.18598       -12.31188         1.88861
H          18.10389       -10.31752         3.24436
H          16.70987        -7.92600         2.34679

