%chk=CN1CdCCdCCdCc2cccnc2NdC1.chk
%NProcShared=20
# opt freq b3lyp/6-31g(2df,p)

Title Card Required 

0  1
C           1.69609         0.00079        -0.43006
N           3.46813        -0.27234        -1.22642
C           3.37276        -1.47510        -0.53692
C           4.54946        -1.73404         0.01129
C           5.35307        -2.63491        -0.75191
C           6.68648        -2.42849        -0.71715
C           7.46438        -3.37211        -1.40821
C           8.73977        -3.02234        -1.59724
C           9.09068        -3.49002        -2.82554
C          10.44311        -4.62687        -2.48907
C          10.79217        -5.75547        -3.15737
C           9.94746        -5.44334        -4.23884
N           8.57306        -4.22710        -4.43125
C           7.81075        -2.81313        -3.62329
N           6.20071        -1.84319        -3.01281
C           5.08904        -0.67876        -2.16629
H           0.93597        -0.78744        -0.68894
H           1.06419         0.96596        -0.55248
H           1.25999        -0.06770         0.82571
H           2.66190        -1.96199        -1.20447
H           5.11766        -0.84340         0.36897
H           4.87113        -2.98902        -1.73355
H           7.15659        -1.40776        -0.67471
H           6.87201        -4.00082        -2.17251
H           9.41158        -2.22155        -1.41154
H          11.15113        -4.41642        -1.65640
H          11.49120        -6.61159        -2.80649
H          10.59644        -6.26334        -5.05261
H           5.34116         0.25536        -1.21419

