%chk=CN1NCdCdCCd[SH]SCNdC1S.chk
%NProcShared=20
# opt freq b3lyp/6-31g(2df,p)

Title Card Required 

0  1
C           2.06151        -0.07191        -0.54157
N           3.79141         0.43077        -1.45355
N           3.50112         1.34942        -0.56765
C           4.64302         1.66957        -0.03161
C           5.07597         2.61684        -0.76944
C           5.62778         3.51295        -1.48773
C           6.97938         3.29836        -1.68946
S           8.14888         4.23865        -2.43650
S          10.00170         2.73569        -3.25350
C           8.32762         3.11032        -3.62262
N           7.09836         1.50160        -2.77795
C           5.72930         0.66333        -2.03826
S           5.21850        -1.23726        -0.74736
H           1.06761         0.86106        -0.62352
H           1.30880        -0.11357         0.69430
H           1.09666        -0.86561        -0.82503
H           2.75264         1.93039        -0.97758
H           5.28711         0.76449         0.15376
H           5.43734         4.50000        -1.33843
H           7.06765         2.31981        -1.28384
H           8.54645         5.15850        -1.71407
H           9.57245         4.17013        -3.44092
H           9.02411         4.21637        -4.47450
H           4.05455        -2.04979         0.33507

