%chk=CNc1ccc2cqc3cnnc1-3rCdCdC2.chk
%NProcShared=20
# opt freq b3lyp/6-31g(2df,p)

Title Card Required 

0  1
C           1.29462        -0.57456         0.07069
N           2.76721        -1.24706         0.13312
C           3.64739        -2.67684         0.00210
C           4.83815        -1.58425        -0.18687
C           5.72643        -1.97670        -1.05554
C           7.07506        -2.34810        -0.66049
C           7.42936        -3.63711        -0.57070
C           6.19494        -4.44714        -0.65894
C           5.86124        -5.13811        -1.78303
N           4.94288        -6.03724        -1.30467
N           4.26495        -5.46444        -0.32205
C           4.59254        -4.02367        -0.12255
C           8.82679        -3.61432        -0.49500
C           8.92495        -2.53118        -1.33955
C           8.19184        -1.65858        -0.54996
H           1.22161         0.56495         0.26283
H           0.64210        -0.92831         0.87204
H           0.80943        -0.58929        -0.92297
H           3.32054        -0.36678         0.15426
H           5.02362        -0.60156         0.29043
H           5.24144        -2.73019        -1.65657
H           5.31459        -4.53765        -2.56444
H           9.62852        -3.32059         0.23927
H           8.11452        -0.60493        -0.40882

