%chk=CNC1dCC2dCNdCSCdCCdCC1dCNN2.chk
%NProcShared=20
# opt freq b3lyp/6-31g(2df,p)

Title Card Required 

0  1
C           1.31419        -0.17932        -0.11934
N           2.92951        -0.30742        -0.58819
C           4.17201        -1.33011        -0.18972
C           4.49752        -1.16930         1.08430
C           5.21256        -2.25926         1.67137
C           6.49058        -1.90230         1.93319
N           7.34379        -2.73067         2.57450
C           8.56232        -2.35309         2.60907
S           9.69938        -3.36596         3.45727
C          10.75025        -3.16229         2.11019
C          10.17899        -3.72096         1.00141
C           8.74666        -3.14001         0.04293
C           7.29018        -2.71988        -0.49102
C           5.43295        -2.52344        -0.84839
C           4.68155        -3.62284        -1.08183
N           4.07780        -4.09063         0.14263
N           4.74641        -3.63267         1.40101
H           0.98952         0.88524         0.11239
H           0.92603        -0.73320         0.76040
H           0.66738        -0.39277        -0.98513
H           3.17873         0.52689        -0.01697
H           4.34833        -0.17983         1.49432
H           6.88988        -0.97876         1.45052
H           9.03222        -1.50544         2.04191
H          11.56774        -2.41038         2.22974
H          10.82171        -4.66956         1.01606
H           9.55747        -2.49420        -0.39779
H           7.39516        -1.98968        -1.26636
H           3.76940        -3.58595        -1.73667
H           3.94957        -5.10581         0.01735
H           4.45316        -4.12109         2.24064

