%chk=CNC1NdC1C1dCCdCNdCCdC2CdCC1dNNdN2.chk
%NProcShared=20
# opt freq b3lyp/6-31g(2df,p)

Title Card Required 

0  1
C           0.92778        -0.06638        -0.00220
N           2.16692        -0.76719        -0.08164
C           1.26274        -2.46388         0.50019
N           1.43609        -3.60179        -0.27282
C           0.10081        -4.15358        -0.06488
C          -1.29864        -5.76976        -0.51487
C          -0.20929        -4.97742        -1.10598
C          -1.18013        -4.11152        -1.75523
C          -1.61822        -5.02364        -2.60185
N          -2.93629        -5.02472        -2.26180
C          -3.39738        -5.89951        -3.06810
C          -4.83278        -6.01414        -3.07800
C          -5.16438        -7.16414        -3.75572
C          -6.19482        -7.53962        -2.85989
C          -5.01660        -7.71909        -1.75829
C          -3.03338        -7.06992        -1.32304
N          -3.24318        -8.53591        -2.08355
N          -4.13936        -9.27657        -3.51080
N          -4.36224        -8.31494        -4.32703
H           0.69954         0.86899        -0.49945
H           0.64577        -0.06110         1.05187
H           0.49425        -0.85492        -0.56004
H           2.72750         0.25009         0.48319
H           2.19781        -1.99382         1.40645
H           0.99093        -4.93235        -1.57238
H          -1.73722        -3.51443        -0.87723
H          -0.78612        -6.01606        -2.58102
H          -2.58215        -6.84417        -3.27881
H          -5.47825        -5.77637        -2.07357
H          -7.19315        -6.91314        -2.77701
H          -5.98307        -8.61196        -2.59095

