%chk=CNC1CdCCdCCdCCdCC2dCCdC2C1.chk
%NProcShared=20
# opt freq b3lyp/6-31g(2df,p)

Title Card Required 

0  1
C           1.30940        -0.15215         0.08235
N           3.23362        -0.70275         0.45353
C           4.90096        -1.89551         1.35558
C           4.86374        -0.49494         1.12607
C           5.33756        -1.02386         2.24785
C           6.76289        -1.02613         2.21833
C           7.40053        -1.64831         3.26578
C           8.78855        -1.79247         3.13351
C           9.30425        -2.27455         4.29814
C          10.82805        -2.14089         4.40205
C          11.13497        -3.10086         5.33299
C          11.05389        -3.55496         3.92661
C          12.50309        -4.21077         4.74632
C          11.14491        -4.26449         3.30037
C           9.33910        -3.76985         2.73483
C           6.96248        -3.00698         1.97009
H           0.72962         0.64084        -0.84928
H           0.67154         0.42887         0.89054
H           0.63793        -0.98892        -0.18918
H           3.00441         0.68495         0.18470
H           3.51024        -1.15489         1.88461
H           5.09349        -0.12551         0.17480
H           4.66888        -1.89885         3.02441
H           7.21682        -0.87317         1.21294
H           6.84772        -2.62509         3.77807
H           9.36946        -1.60320         2.19437
H           8.93101        -3.38878         4.67048
H          11.66615        -1.75591         3.36095
H          11.03063        -4.22733         5.66883
H          13.21166        -4.74928         6.10741
H          12.72356        -4.16171         3.99433
H           5.46777        -3.22990         2.12403
H           5.64851        -3.17521         1.28864

