%chk=CNC1dCCdCCdCCdNCdCCdCCdCqNNqNrNrO1.chk
%NProcShared=20
# opt freq b3lyp/6-31g(2df,p)

Title Card Required 

0  1
C           2.33244         0.27916        -0.74291
N           4.60767         0.78246        -1.94840
C           6.70636         1.47438        -3.61173
C           5.52734         0.74685        -1.94548
C           5.65713         1.22749        -2.95755
C           7.21903         0.88601        -2.19038
C           8.11578         1.49421        -3.64307
C           9.18304         1.45683        -3.55519
C          10.43896         2.03613        -4.93324
N          11.39447         1.83076        -4.45014
C          11.16119         2.25813        -5.45560
C          12.95363         2.33298        -5.64354
C          13.34002         2.88065        -6.90816
C          15.02583         2.80060        -6.76449
C          13.68942         3.10868        -7.52625
C          11.70147         2.76272        -6.73691
N          14.12529         3.25494        -8.01988
N          16.79349         3.54493        -8.96305
N          19.16783         2.85736        -9.39730
N          18.85463         4.27900       -10.31058
O           9.11060         2.11836        -5.16846
H           0.94860        -0.27947         0.59187
H           0.75813        -0.56529        -0.93269
H           0.75814         1.00717        -0.27448
H           3.66064         0.15803        -0.45370
H           5.13848         0.17887        -0.46949
H           4.83512         1.44908        -3.53611
H           7.25188         0.55275        -1.39611
H           7.13914         2.00180        -4.85763
H           9.40269         1.12320        -2.75904
H           9.23127         2.58700        -6.25182
H          10.46710         2.87945        -6.94549
H          13.65208         2.09719        -5.08606
H          12.74298         3.47930        -8.37970
H          15.74925         2.61953        -6.32170
H          14.73080         3.75180        -9.02870
H          15.71922         3.72458        -8.98285
H          19.48855         2.31052        -8.60929
H          20.76875         2.74381        -9.51075
H          19.45630         5.46544       -11.00920
H          19.45821         3.95191       -11.64089

