%chk=CNC1dCC2dCCdCC2dCCdCCdCCS1.chk
%NProcShared=20
# opt freq b3lyp/6-31g(2df,p)

Title Card Required 

0  1
C           1.12931         0.10724        -0.00486
N           2.57534        -0.04868        -0.17832
C           3.58435         0.95238        -0.38820
C           4.44428         0.85162         0.70209
C           5.10005         1.73199         1.77057
C           4.82739         1.80784         3.11738
C           5.85133         2.58654         3.85299
C           6.79280         2.98507         2.99565
C           6.38848         2.49412         1.69591
C           7.16414         2.71116         0.65223
C           6.89664         2.06630        -0.57559
C           7.58758         2.04623        -1.67371
C           7.07110         1.05482        -2.56637
C           6.62602         1.45766        -3.72463
C           5.21483         0.97610        -3.92585
S           3.87933         1.39406        -2.33362
H           0.63056        -0.57953        -0.70114
H           0.73582         1.11304        -0.17792
H           0.79898        -0.22328         0.99387
H           2.76295        -0.81367        -0.81069
H           5.11540        -0.01095         0.60332
H           4.04039         1.33382         3.68965
H           5.88935         2.80219         4.91492
H           7.70020         3.54130         3.18772
H           8.09228         3.26075         0.69848
H           6.03035         1.43497        -0.56272
H           8.39467         2.72752        -1.89921
H           6.43501         0.28445        -2.10324
H           7.21325         2.15391        -4.34134
H           5.27275        -0.07433        -4.24929
H           4.87030         1.54278        -4.81650

