%chk=CNC1dNCdCNdCCdCCdS2CdNCdC1S2.chk
%NProcShared=20
# opt freq b3lyp/6-31g(2df,p)

Title Card Required 

0  1
C           3.11119         0.82989        -0.84291
N           5.17436         1.29076        -1.76597
C           7.12727         2.25836        -2.58326
N           6.02319         1.80965        -1.40683
C           5.61262         2.96711        -0.83993
C           6.87377         2.77092        -0.43295
N           7.53150         3.82067        -1.17357
C           8.75580         3.61183        -1.41298
C           9.41170         4.83729        -1.86340
C          10.74762         4.77896        -1.69669
C          11.42308         5.99089        -2.47692
S          13.08259         5.80020        -2.62439
C          13.72244         4.34189        -3.13462
N          13.11049         3.95039        -4.24865
C          11.18917         3.70426        -3.98052
C           9.28709         3.09016        -3.37301
S          10.90418         4.86000        -3.96087
H           1.97186        -0.15709        -0.02100
H           1.53204         0.34554        -1.04324
H           1.72914         1.00894         0.13763
H           4.53761         0.59369        -0.64683
H           4.75991         3.26582        -1.55311
H           7.35971         1.49024        -0.53693
H           9.26761         2.62552        -1.25965
H           8.91038         5.44621        -2.67841
H          11.33960         3.79369        -1.78522
H          10.86562         6.77994        -3.17609
H          13.30724         3.58151        -2.57212
H          12.49802         4.54738        -4.73093

