%chk=CNC1dCCdCCdCCdCCdCCdCCdCCdC1.chk
%NProcShared=20
# opt freq b3lyp/6-31g(2df,p)

Title Card Required 

0  1
C           2.09855         0.51839        -0.13337
N           4.30311         1.81163        -0.31560
C           6.25517         3.60807        -0.56874
C           5.18322         1.79276        -0.31294
C           5.47689         2.85829        -0.46309
C           7.04681         2.22553        -0.37392
C           7.80899         3.47743        -0.55033
C           8.93042         3.62391        -0.57097
C           9.98516         4.78548        -0.73465
C          11.03584         4.78022        -0.73391
C          11.68423         5.61433        -0.85144
C          12.86098         5.74460        -0.86980
C          13.08627         6.68907        -1.00288
C          14.75456         7.36259        -1.09779
C          15.45979         8.70674        -1.28720
C          13.60653         7.88059        -1.17078
C          10.94121         6.67730        -1.00123
C           8.66046         5.41947        -0.82398
H           0.80710        -0.93102         0.07087
H           0.68278         0.32638        -0.98793
H           0.68278         0.57001         0.74098
H           3.46436         0.13588        -0.07947
H           5.10871         0.31169        -0.10424
H           4.57906         3.61068        -0.56911
H           7.24360         1.40986        -0.25898
H           7.71934         4.35805        -0.67442
H           9.33971         2.83231        -0.45942
H           9.47813         6.33719        -0.95330
H          11.46395         4.09560        -0.63744
H          10.13627         7.20089        -1.07501
H          13.63404         5.40522        -0.82198
H          12.78171         8.73284        -1.29088
H          15.68014         6.72704        -1.00824
H          15.25003        10.02970        -1.47362
H          15.73438         8.06066        -1.19616
H          12.51705         7.77826        -1.15636
H           6.82665         5.05272        -0.77231

