%chk=CNdC1CdCCdCNdCCdCCdC2CdC21.chk
%NProcShared=20
# opt freq b3lyp/6-31g(2df,p)

Title Card Required 

0  1
C           2.28804        -0.00009        -0.64302
N           4.40307         0.13379        -1.85932
C           6.21224         0.27212        -3.11599
C           5.07212         0.07566        -1.33125
C           5.76644         0.21457        -2.59316
C           7.31873         0.13314        -1.85341
C           7.88996         0.25216        -2.93471
N           9.27226         0.22868        -2.72136
C           9.86187         0.36223        -3.93461
C          10.72674         0.32736        -3.61783
C          10.18235         0.56996        -5.82174
C          11.79822         0.52542        -5.41712
C          10.27610         0.56084        -5.73897
C          11.04635         0.46672        -4.88389
C           8.67918         0.41555        -4.41901
H           1.05909        -0.14991         0.71798
H           0.81805        -0.85298        -0.61687
H           0.81805         0.82668        -0.43199
H           5.20180        -0.05268        -0.16532
H           4.61632         0.29653        -3.33776
H           7.41519         0.03665        -0.97687
H           6.98517         0.40701        -4.34142
H           8.88679         0.54679        -5.61128
H          11.76053         0.30494        -3.41416
H          11.21509         0.70856        -7.08095
H          13.49572         0.45161        -4.74662
H          12.92724         0.55724        -5.70626

