%chk=CNdC1[C]d[C]CdCCdCCdCSCdN1.chk
%NProcShared=20
# opt freq b3lyp/6-31g(2df,p)

Title Card Required 

0  1
C           2.39831        -0.62637         0.76533
N           4.21402        -1.64907         1.53918
C           5.71878        -2.50088         2.27987
C           5.29712        -1.04574         1.09682
C           6.10551        -1.48199         1.74592
C           7.30893        -1.19271         1.54892
C           7.78514        -1.53074         2.70300
C           9.04054        -1.70771         2.11463
C           9.58712        -2.38501         3.00121
C          10.96616        -2.58377         2.98751
C          10.34401        -3.24989         3.95669
S          11.68852        -4.02300         4.22395
C           9.23810        -4.19856         3.71644
N           7.69174        -3.53828         2.82492
H           1.57478         0.33459        -0.26304
H           1.15520         0.18948         1.17134
H           1.15640        -1.06169         0.00053
H           7.56622        -0.62595         0.74959
H           7.07224        -2.33659         3.73607
H           9.83789        -1.34138         1.56585
H           8.57017        -2.79861         4.02799
H          11.96794        -2.30106         2.58887
H          10.18550        -4.40178         5.13170
H          11.01645        -4.47742         4.29235

