%chk=CNdCC[SH]1qdOrCdC2CdCCdCCC1C2.chk
%NProcShared=20
# opt freq b3lyp/6-31g(2df,p)

Title Card Required 

0  1
C           1.05273         0.06313         0.05687
N           2.52273         0.06313         0.05687
C           3.18055        -0.59631        -0.87229
C           4.70055        -0.59631        -0.87229
S           5.30388        -1.58397        -2.26392
O           4.79373        -0.98249        -3.57549
C           7.11388        -1.58397        -2.26392
C           7.79408        -2.26584        -3.22468
C           7.08830        -2.90971        -4.09919
C           6.81923        -4.14962        -4.55063
C           7.87188        -5.17930        -4.67957
C           8.59829        -5.44443        -3.56352
C           8.60822        -4.51401        -2.38326
C           9.77919        -3.55143        -2.62045
C           9.25371        -2.20193        -3.13463
H           0.69606         0.64700         0.87954
H           0.69606        -0.94125         0.15118
H           0.69606         0.48365        -0.86011
H           2.66455        -1.11358        -1.60113
H           5.05722        -1.01683         0.04469
H           5.05722         0.40808        -0.96660
H           5.30585        -0.22790        -2.36724
H           7.62988        -1.06670        -1.53508
H           6.53482        -2.23044        -4.64441
H           5.85027        -4.38774        -4.81414
H           8.04544        -5.67052        -5.57042
H           9.15963        -6.30954        -3.52457
H           8.75505        -5.06334        -1.47685
H           7.68044        -3.98976        -2.28694
H          10.79606        -3.88001        -2.56641
H           9.66497        -2.00106        -4.10179
H           9.54206        -1.42044        -2.46304

