%chk=CNNC1dNCdCCdCCdCCdC2CdCC1dCCdN2.chk
%NProcShared=20
# opt freq b3lyp/6-31g(2df,p)

Title Card Required 

0  1
C           1.51315         0.25459         0.36435
N           3.36975         1.17985         1.21982
N           4.61976         2.55331         2.89992
C           6.05330         3.79235         4.34675
N           5.51512         2.63560         3.08210
C           6.53132         2.10988         2.49272
C           7.18299         2.90105         3.40682
C           8.38019         3.02243         3.52800
C           8.81364         3.74643         4.35669
C           9.97367         3.98757         4.63181
C          10.55771         4.65289         5.39372
C          11.90331         4.91977         5.69825
C          11.54098         5.70015         6.59008
C          12.49925         6.11960         7.06623
C          10.47093         5.77143         6.65774
C           8.17197         5.03202         5.80078
C           8.42398         6.26947         7.23441
C           9.73649         6.91071         7.97270
N          10.96578         6.96225         8.03288
H           0.70631        -0.68649        -0.71472
H           0.62424         0.95674        -0.17480
H           0.62576        -0.37182         0.99373
H           3.01206         0.53615        -0.26571
H           3.30616         1.89059         2.24013
H           6.82944         1.44777         1.72797
H           7.17022         4.02560         4.74705
H           8.83851         2.49489         2.92537
H           8.19932         4.11935         4.76636
H          10.68252         3.57414         4.15905
H           9.63407         5.11814         5.92755
H          12.70708         4.59041         5.32065
H          14.13445         5.83314         6.74100
H          12.05506         6.51100         7.51345
H           9.04072         7.31012         8.43019
H           9.38686         6.25196         7.22227

