%chk=CNNdC1CdCCdCCdCCdCCdCNdCSS1.chk
%NProcShared=20
# opt freq b3lyp/6-31g(2df,p)

Title Card Required 

0  1
C           1.32734        -0.08138        -0.10216
N           3.43554        -0.39215        -0.36983
N           5.39909        -1.22107        -1.08380
C           7.30788        -1.86923        -1.64207
C           5.45735        -2.08512        -1.82803
C           6.90592        -2.05706        -1.80386
C           7.64934        -3.20732        -2.79460
C           8.98892        -3.57603        -3.11219
C           9.57404        -4.35873        -3.78631
C          10.81373        -4.31161        -3.75276
C          10.96795        -5.20868        -4.50487
C          11.60143        -4.36607        -3.79032
C          12.94983        -5.62972        -4.88114
C          14.68024        -5.67186        -4.91736
N          15.48612        -6.76995        -5.86316
C          15.07641        -5.52547        -4.79126
S          13.06005        -4.02749        -3.50104
S          10.24533        -2.49239        -2.17877
H           0.78101         0.76725         0.62878
H           0.75761        -0.96530         0.30668
H           0.75761         0.19196        -1.03691
H           3.15073         0.59895         0.48382
H           4.79728        -2.69359        -2.35211
H           7.57436        -0.89554        -0.80342
H           6.85681        -3.66947        -3.19266
H          10.70047        -3.36238        -2.92784
H           8.90084        -4.80306        -4.16898
H          11.79062        -3.26703        -2.84618
H          11.13520        -5.85763        -5.08571
H          12.78525        -3.14586        -2.74237
H          13.20510        -6.63014        -5.74273
H          15.92001        -4.75997        -4.13193
H          16.80238        -5.94594        -5.15342

