%chk=COC1dCNdCCdCCdC2CdCCdCC21S.chk
%NProcShared=20
# opt freq b3lyp/6-31g(2df,p)

Title Card Required 

0  1
C           2.62784         0.84618         0.60655
O           4.34476         1.87934         1.54888
C           6.23688         2.43131         2.39542
C           5.62578         1.40745         1.27789
N           5.92243         2.53662         0.61215
C           7.11858         2.12378         0.53319
C           7.53690         3.38846         0.95875
C           8.74393         2.99611         1.15870
C           8.97086         4.40142         1.70512
C          10.09079         3.87299         2.08338
C          11.38841         3.06619         1.68171
C          12.66536         3.27884         1.85737
C          12.31746         4.33292         2.70965
C          10.50191         4.37437         3.08705
C           8.41191         3.50667         3.02963
S           9.76166         4.83709         4.59198
H           1.76020        -0.30407        -0.16588
H           1.35297         1.07833        -0.31816
H           1.28340         0.24222         1.09093
H           5.26567         0.46266         0.25735
H           7.31704         1.01476         0.55428
H           6.88378         4.14568         1.97426
H           9.40921         2.14240         1.15163
H           8.75314         5.34497         2.69819
H          10.96699         2.29960         1.26832
H          13.38250         2.57992         1.44687
H          13.81665         4.58835         2.57745
H          11.62017         5.45426         3.22653
H          11.30979         5.65275         5.10389

