%chk=COC1dCCdCNdCCdCCdCCdCCdCCdC2CC21.chk
%NProcShared=20
# opt freq b3lyp/6-31g(2df,p)

Title Card Required 

0  1
C           4.71723        -1.31644         0.66292
O           7.80164        -2.42711         1.20198
C          10.51091        -3.69557         1.88248
C           8.37311        -2.66373         1.33539
C           5.96715        -2.47664         1.23194
C           6.83920        -3.18281         1.63339
N           7.03031        -4.20100         2.05998
C           8.52014        -4.12287         2.03006
C           9.45965        -4.91474         2.41250
C          11.00539        -5.03526         2.46496
C          11.48632        -5.85910         2.87462
C          12.53101        -5.87062         2.86358
C          13.45335        -7.41126         3.64696
C          13.76065        -6.59763         3.18059
C          14.84115        -8.03903         3.92509
C          16.36306        -7.95481         3.78314
C          17.21159        -8.65199         4.23043
C          15.81943        -6.98903         3.42830
C          16.69023        -6.52448         3.57034
C          13.83115        -5.25774         2.70011
H           2.70285        -0.20623         0.12941
H           2.48993        -0.56440         0.78603
H           2.48910        -0.94344         0.00457
H           6.52194        -1.57452         0.78482
H           4.72027        -3.03039         1.50030
H           7.40574        -1.40244         0.72802
H           9.49273        -2.73147         1.35520
H           8.82643        -5.43138         2.66618
H          11.83114        -3.72561         1.83119
H          10.99059        -6.54016         3.20448
H          13.01722        -4.56211         2.21213
H          12.95627        -7.86502         3.84626
H          15.18310        -5.81780         2.84197
H          15.19556        -8.90514         4.35340
H          17.02587        -6.27338         2.63426
H          17.33934       -10.07047         4.91698
H          18.83870        -7.30980         4.07837
H          18.84454        -7.48987         3.47154
H          15.51517        -6.54397         3.22942

