%chk=COC1dCCCqOCdCdCdCCdOrCdC1.chk
%NProcShared=20
# opt freq b3lyp/6-31g(2df,p)

Title Card Required 

0  1
C           1.07709        -0.04437        -0.01835
O           2.50043        -0.12059         0.01799
C           3.11354         0.93407         0.65915
C           4.11614         1.59175         0.06272
C           4.86697         2.69936         0.75265
C           4.09963         3.36769         1.92797
O           3.24302         4.46734         1.50736
C           3.82933         5.55856         0.91163
C           3.08591         6.55233         0.50617
C           2.43976         7.50070         0.11722
C           1.72575         8.49703        -0.33129
C           1.73139         9.84276         0.28300
O           1.02401        10.74921        -0.14556
C           3.21497         2.34844         2.63520
C           2.77978         1.22171         2.03906
H           0.71589        -0.83565        -0.68414
H           0.72971         0.91546        -0.41646
H           0.65410        -0.22849         0.97283
H           4.40813         1.32495        -0.94690
H           5.13983         3.44106        -0.00035
H           5.80459         2.26709         1.13231
H           4.83083         3.74023         2.66124
H           4.89771         5.52548         0.75833
H           1.05232         8.39089        -1.17598
H           2.40266         9.99212         1.14250
H           2.95300         2.53373         3.67286
H           2.17675         0.50310         2.58747

