%chk=COC1dCCdCCdCCdC1SSCS.chk
%NProcShared=20
# opt freq b3lyp/6-31g(2df,p)

Title Card Required 

0  1
C           1.01818         0.14116        -0.03280
O           2.43516         0.32456         0.00504
C           3.09604         0.54827        -1.19661
C           2.71046         1.68634        -1.78159
C           3.06326         2.57166        -2.82560
C           4.06637         2.64323        -3.69558
C           5.12759         1.75530        -4.01032
C           5.49921         0.55677        -3.55836
C           5.09869        -0.34543        -2.50200
C           4.18803        -0.40662        -1.49405
S           4.44676        -1.94803        -0.47974
S           3.21459        -1.85662         1.16277
C           3.34550        -3.34518         2.15122
S           2.04685        -3.31037         3.44233
H           0.71193        -0.25352         0.94235
H           0.72380        -0.57762        -0.80304
H           0.50355         1.09530        -0.15549
H           1.87659         2.16377        -1.26506
H           2.37668         3.42109        -2.85679
H           4.06333         3.54300        -4.31327
H           5.73502         2.15914        -4.82629
H           6.34946         0.14979        -4.11894
H           5.78580        -1.19942        -2.56815
H           4.32059        -3.35709         2.63696
H           3.18904        -4.23704         1.54454
H           2.34806        -2.10994         3.96783

