%chk=COCC1dC2CdCOCqdCC2dOrCdCCdC1.chk
%NProcShared=20
# opt freq b3lyp/6-31g(2df,p)

Title Card Required 

0  1
C           1.19190         0.03511         0.17358
O           2.62439        -0.09127         0.45933
C           2.96709         0.60201         1.70098
C           4.47051         0.50568         2.37098
C           5.13385         1.69341         2.25473
C           6.57126         1.72982         2.21156
C           7.32954         1.49112         3.27588
O           7.01253         1.69334         4.59216
C           5.74377         1.83896         5.14891
C           4.58548         2.27065         4.61446
C           4.45336         2.62017         3.20610
O           3.61829         3.48172         2.85305
C           5.63719         1.01559         6.33806
C           5.98935        -0.22996         5.99173
C           5.52275        -0.85063         4.67693
C           5.00638        -0.60689         3.39601
H           0.90321        -0.51326        -0.73792
H           0.86221         1.07704         0.03094
H           0.62075        -0.40169         0.99912
H           2.22957         0.31652         2.44397
H           2.78563         1.65286         1.41296
H           7.02366         1.78911         1.22349
H           8.33256         1.08865         3.16315
H           3.63839         2.10510         5.12805
H           4.66304         1.06972         6.83368
H           7.06866        -0.39688         6.23056
H           5.38948        -1.87803         5.04335
H           5.46396        -1.34427         2.71898

