%chk=CONC1dCdC2C3dNCdCCdCC1dNC23.chk
%NProcShared=20
# opt freq b3lyp/6-31g(2df,p)

Title Card Required 

0  1
C           1.37597         0.07021         0.00238
O           2.83223         0.20909         0.01298
N           3.21175         1.24878         0.94524
C           4.62136         1.48227         1.30724
C           5.04068         0.93039         2.54351
C           6.37968         0.94179         2.95438
C           7.08401         2.24106         2.85280
N           8.22553         2.79062         3.06439
C           8.18492         4.15145         2.80503
C           8.06529         4.53717         1.52445
C           6.82386         4.49145         0.73208
C           5.95474         3.51264         0.31126
C           5.70027         1.98447         0.50930
N           6.90927         1.38800         0.66750
C           7.26994         1.03315         1.94386
H           1.04706        -0.47803        -0.89645
H           0.87069         1.04210        -0.01345
H           1.01209        -0.51433         0.86095
H           2.72944         1.02763         1.82578
H           7.52805         4.65772         3.51806
H           8.85388         5.21660         1.15943
H           6.63057         5.50747         0.36515
H           5.35355         3.84432        -0.52823
H           8.30078         0.69965         2.00612

