%chk=CSC1dCCdCc2cqc2dNNOrCCdC1.chk
%NProcShared=20
# opt freq b3lyp/6-31g(2df,p)

Title Card Required 

0  1
C           1.13828        -0.12454         0.17578
S           3.17210        -0.38137         0.75951
C           4.27333        -1.18952         2.61171
C           4.92573        -0.87482         1.48819
C           5.40408        -2.01029         2.25313
C           6.65216        -2.24837         2.65404
C           6.26854        -3.28588         4.34959
C           7.18797        -2.74420         5.31944
C           6.15721        -3.31596         5.95907
N           4.88914        -3.19961         5.62056
N           3.94666        -3.59230         6.33977
O           2.57550        -3.41650         6.00836
C           8.51354        -3.15803         5.62558
C           7.60765        -1.97973         4.30915
C           5.70201        -1.29070         4.06969
H           0.76383         0.41504        -0.78799
H           0.68196         0.45434         0.96878
H           0.68484        -1.10879         0.08897
H           5.68601        -0.53255         0.88059
H           4.64814        -2.69495         3.41637
H           7.59068        -1.38275         2.38623
H           4.21232        -4.06541         7.16310
H           2.49321        -2.93779         5.16222
H           8.56229        -4.36835         5.86904
H           8.60167        -2.82733         6.75467
H           8.95507        -2.57647         4.69952
H           4.25817        -1.40464         3.53880

