%chk=CSC1dCCdC2CqOrdCCdC12.chk
%NProcShared=20
# opt freq b3lyp/6-31g(2df,p)

Title Card Required 

0  1
C           1.18970        -0.12935         0.04972
S           2.99659         0.01208         0.21960
C           3.46682        -1.43956         0.99334
C           3.79656        -2.59093         0.37285
C           4.00126        -3.66464         1.36407
C           3.41309        -3.24193         2.51136
C           1.99050        -3.42647         2.84362
O           1.19406        -4.42752         2.37911
C           1.52671        -2.25965         3.33974
C           2.60870        -1.26512         3.33714
C           3.52532        -1.71691         2.44954
H           0.84753         0.61349        -0.68280
H           0.69268         0.10349         0.99577
H           0.85553        -1.10978        -0.30509
H           3.77969        -2.78077        -0.68791
H           5.07565        -3.89686         1.41588
H           1.74950        -5.14681         2.03415
H           0.48857        -2.00212         3.43142
H           2.94458        -1.09908         4.36889

