%chk=CSC1dCCdCCdCCdCCdCCdCCdCCdC1.chk
%NProcShared=20
# opt freq b3lyp/6-31g(2df,p)

Title Card Required 

0  1
C           1.86579         0.54194         0.05543
S           4.15830         2.51482         0.05437
C           6.11373         4.85610         0.05311
C           5.43235         2.78267         0.05423
C           5.42075         3.83701         0.05366
C           6.99163         3.39927         0.05389
C           7.65902         4.75572         0.05316
C           8.70103         5.15511         0.05294
C           9.48685         6.40496         0.05227
C          10.51423         6.64370         0.05214
C          10.95331         7.59042         0.05163
C          12.12344         7.93688         0.05144
C          12.17673         8.94123         0.05090
C          13.69528         9.88835         0.05039
C          14.15271        11.37290         0.04959
C          12.51409        10.23058         0.05021
C          10.12869         8.62929         0.05107
C           8.12617         6.99566         0.05195
H           0.79092        -0.99437         0.05626
H           0.71681         0.45812        -0.82292
H           0.71681         0.45906         0.93387
H           5.53496         1.14574         0.05511
H           4.40788         4.31311         0.05340
H           7.40954         2.61488         0.05432
H           7.39014         5.66709         0.05267
H           9.20554         4.40112         0.05335
H           8.77206         7.94242         0.05144
H          11.06573         6.04080         0.05247
H           9.17649         8.85333         0.05095
H          12.95630         7.73760         0.05155
H          11.47832        10.90338         0.04984
H          14.72091         9.42510         0.05064
H          13.68842        12.62782         0.04891
H          14.54450        10.77097         0.04991
H          11.48530         9.93725         0.05036
H           6.39987         6.22989         0.05237

