%chk=CSC1dCC2dCCdCC2dCCdCCdCCdCS1.chk
%NProcShared=20
# opt freq b3lyp/6-31g(2df,p)

Title Card Required 

0  1
C           1.32736         0.09295        -0.08391
S           3.10222        -0.04795        -0.63707
C           4.18994         1.15488         0.21053
C           4.56609         0.71406         1.48756
C           5.14629         0.99074         2.88966
C           4.76971         0.38522         4.07704
C           5.58499         0.82269         5.23037
C           6.52787         1.66356         4.78792
C           6.31950         1.77435         3.36064
C           7.20584         2.46918         2.62123
C           7.19586         2.33715         1.23940
C           8.00634         2.92507         0.33705
C           7.78606         2.38280        -0.94821
C           7.88788         3.04443        -2.09933
C           6.75976         2.64605        -2.93103
C           5.46795         2.85610        -2.47994
S           4.58421         2.80827        -0.70958
H           0.73393        -0.17180        -0.97420
H           0.97726         1.08320         0.22736
H           0.99453        -0.64788         0.66677
H           5.17435        -0.19382         1.26677
H           3.99801        -0.34949         4.27320
H           5.47528         0.54415         6.27395
H           7.30813         2.14468         5.36121
H           8.02233         3.00615         3.06923
H           6.51024         1.61934         0.84050
H           8.66113         3.72819         0.58978
H           7.13216         1.50760        -1.01241
H           8.46199         3.95701        -2.22184
H           7.04036         2.69250        -3.99848
H           5.35265         3.92376        -2.79312

