%chk=CSC1CdCNdC2CdCCdCN2CdC1S.chk
%NProcShared=20
# opt freq b3lyp/6-31g(2df,p)

Title Card Required 

0  1
C           1.31513        -0.08455         0.14907
S           3.27432        -0.33444        -0.17460
C           4.20529        -1.10701         1.35063
C           5.10761        -0.10074         1.90487
C           5.47221        -0.49460         3.15709
N           6.77675        -0.51236         3.44733
C           7.16607        -1.73572         3.77427
C           6.55719        -2.66802         4.76816
C           7.43877        -3.43307         5.47717
C           8.80826        -3.42761         5.05227
C           9.03984        -3.09366         3.73504
N           7.95877        -2.37098         2.86493
C           6.83204        -2.80950         1.63575
C           5.35071        -2.49623         1.27413
S           4.08864        -3.90294         1.45837
H           0.88966         0.54281        -0.66882
H           0.98031         0.42726         1.06715
H           0.78780        -1.04035         0.04133
H           3.37831        -1.26094         2.07118
H           5.81403         0.30991         1.19687
H           4.86229        -1.31295         3.56487
H           5.51466        -2.85487         4.78482
H           7.08780        -4.07193         6.26785
H           9.54165        -3.65760         5.85095
H          10.10451        -2.78716         3.60269
H           7.45992        -2.07396         1.07556
H           2.83730        -3.33884         1.22172

