%chk=CSC1dCdCCdCCdCqCNdOrC1dO.chk
%NProcShared=20
# opt freq b3lyp/6-31g(2df,p)

Title Card Required 

0  1
C           1.23938         0.22117        -0.12231
S           3.25861         0.75221        -0.46761
C           4.28477         2.62673        -0.22046
C           5.24280         1.84341         0.09760
C           6.48235         1.71032        -0.06901
C           6.98809         2.48453        -1.13775
C           8.11408         3.12946        -0.95391
C           7.97834         4.34145        -1.60575
C           7.14946         5.21409        -1.13260
C           8.81366         5.96249        -1.95099
N          10.72570         5.72075        -1.79213
O          11.47003         6.52714        -2.48219
C           5.30431         4.18725        -0.84528
O           4.22635         4.81802        -0.87856
H           0.91460        -0.88833        -0.12736
H           0.69730         0.59468        -0.99384
H           0.77456         0.57727         0.80870
H           7.03066         1.40089         0.77753
H           6.36119         2.95382        -1.93984
H           8.81823         2.95200        -0.15479
H           7.68570         4.63114        -2.65242
H           9.08801         7.02358        -1.80728
H           9.15315         5.70822        -3.07227

