%chk=CSCC1dCCdCCdCCdCCdCCdC1S.chk
%NProcShared=20
# opt freq b3lyp/6-31g(2df,p)

Title Card Required 

0  1
C           0.98155         0.01396         0.02009
S           3.14389        -0.07594        -0.00197
C           4.88205        -1.83328        -0.43290
C           7.23754        -2.24671        -0.53841
C           5.78547        -2.90452        -0.69389
C           7.20601        -3.05858        -0.73063
C           7.71672        -4.17129        -1.00270
C           8.95038        -4.41420        -1.06136
C           9.49786        -5.42169        -1.30889
C          10.68908        -5.09853        -1.26107
C          11.42082        -6.35309        -1.53939
C          12.03991        -5.32108        -1.24002
C          13.06804        -5.67198        -1.34465
C          11.70601        -3.91426        -0.83842
C           9.59062        -2.72753        -0.63286
S           8.15557        -0.72410        -0.15517
H           0.58625         1.04016         0.27096
H           0.57521        -0.64972         0.77410
H           0.57521        -0.22701        -0.95508
H           3.43471        -1.90422        -1.24244
H           3.43474        -2.27038         0.25517
H           5.04809        -3.71077        -0.89032
H           8.48645        -2.23724        -0.52683
H           7.12236        -4.89131        -1.17908
H           9.98097        -4.01743        -0.96285
H           9.24338        -6.25227        -1.51166
H          10.78993        -3.19228        -0.83043
H          11.53824        -7.34567        -1.77853
H          13.93886        -4.70050        -1.07670
H          13.52358        -7.28387        -1.76237
H          13.01382        -4.67883        -1.27731
H           6.68075         0.57856         0.15787

