%chk=CSCqCdCdCCqSrCNdNrqOSrSNdO.chk
%NProcShared=20
# opt freq b3lyp/6-31g(2df,p)

Title Card Required 

0  1
C           1.00475         0.13192         0.08646
S           2.81089         0.15549         0.01012
C           3.29345        -1.65899         0.35864
C           2.89657        -2.03812         1.77751
C           3.19527        -1.39819         2.87616
C           3.56388        -0.76613         3.94712
C           4.72461        -1.17436         4.82300
S           6.27456        -1.19262         3.83217
C           4.87557        -0.26397         6.05106
N           5.98104        -0.75570         6.89214
N           6.20818        -0.01757         7.86828
O           2.78231        -2.56333        -0.65450
S           1.18501        -3.06786        -0.56350
S           5.20741        -1.57597         0.22110
N           5.48430        -3.18466         0.62388
O           6.70096        -3.41086         0.67935
H           0.63902         1.15891        -0.01369
H           0.63392        -0.26327         1.03525
H           0.58074        -0.41289        -0.75755
H           2.34199        -2.96270         1.89585
H           2.96073         0.08358         4.25949
H           4.55432        -2.20170         5.16737
H           6.28334         0.10411         3.49502
H           3.94734        -0.28244         6.63731
H           5.05102         0.77649         5.74499
H           7.00420        -0.36642         8.42045
H           0.94281        -3.35045        -1.85202

