%chk=CSSC1dCCdC2CdCCdCC1dCCdC2.chk
%NProcShared=20
# opt freq b3lyp/6-31g(2df,p)

Title Card Required 

0  1
C           1.12700         0.04254         0.02881
S           2.99563         0.07080         0.00579
S           3.74740        -1.44245         1.26894
C           5.54992        -1.36680         1.01073
C           6.01888        -1.96109        -0.09220
C           7.42086        -2.22228        -0.18766
C           8.11509        -3.09050         0.61080
C           9.57211        -3.02123         0.58228
C           9.98092        -1.78663         0.26894
C           9.55905        -0.64668         1.38216
C           8.19584        -0.45324         1.73458
C           6.68232        -1.11623         2.05696
C           6.75017        -1.98085         3.09745
C           6.78362        -3.40340         2.73191
C           7.42485        -3.87089         1.63514
H           0.73908         0.89594        -0.55648
H           0.72220         0.15193         1.03939
H           0.72284        -0.86025        -0.44022
H           5.42471        -2.32669        -0.90197
H           7.89656        -1.37601        -0.70056
H          10.12656        -3.53151         1.38696
H           9.82071        -1.33345        -0.73495
H          10.64833        -0.85687         1.07856
H           7.82873         0.47546         2.17580
H           7.39755        -1.72059         3.93569
H           6.23476        -4.10015         3.35334
H           7.43013        -4.91583         1.38319

