%chk=NC1CdCCdCNdCCdNCqCdOrdN1.chk
%NProcShared=20
# opt freq b3lyp/6-31g(2df,p)

Title Card Required 

0  1
N           2.68622         0.61555        -0.83260
C           4.47034         1.28286        -1.68658
C           3.32633         2.02474        -0.84217
C           4.56719         2.17536        -0.38550
C           4.88171         3.37758        -0.98518
C           6.18263         3.59189        -0.84878
N           6.53248         4.64927        -1.57596
C           7.77949         4.81168        -1.50751
C           8.07376         5.88989        -2.47539
N           8.76911         4.86712        -2.77685
C           7.64132         3.51621        -3.24064
C           9.45932         4.81363        -3.79669
O           9.98531         6.25780        -4.02325
N           6.27909         2.45023        -2.63052
H           1.62284         1.01218        -0.01409
H           1.85740        -0.27305        -0.16520
H           4.10449         0.50498        -0.39871
H           2.30137         2.34330        -1.21469
H           5.37608         1.06202        -0.13459
H           4.20353         3.65673        -1.86643
H           6.90389         2.57523        -0.84551
H           8.70009         3.78751        -1.46135
H           7.64771         6.46432        -3.38300
H          10.82122         5.49738        -3.42866

