%chk=NC1dC2NdC2CdCCdCC2dCCdCCdCCdCC2dCCdC1.chk
%NProcShared=20
# opt freq b3lyp/6-31g(2df,p)

Title Card Required 

0  1
N          -0.03669         0.04194         0.01734
C           1.51727         0.11931        -0.07056
C           2.83336         0.60313        -0.66980
N           4.04153         0.94425        -1.09159
C           2.86598         1.49328        -1.76672
C           1.06443         1.67590        -1.99104
C           0.23035         2.33365        -2.79985
C          -1.23716         2.40978        -2.89353
C          -2.19343         3.02158        -3.64853
C          -4.07324         3.09013        -3.73103
C          -4.23996         3.87941        -4.70168
C          -5.53861         4.03247        -4.89185
C          -5.79041         4.78508        -5.81792
C          -6.86168         4.46996        -5.17641
C          -7.78466         5.16172        -6.23332
C          -9.26495         4.64935        -5.68651
C          -8.10318         3.61301        -4.73895
C          -6.00269         2.75708        -3.45600
C          -4.41918         1.89726        -2.33059
C          -2.48608         0.98657        -1.13803
C          -0.59862         0.35239        -0.35845
H           0.90071         0.56238        -0.62573
H          -0.05458        -0.80371         1.05823
H           0.21502         1.28337        -1.50896
H           0.73733         2.89730        -3.49301
H          -1.56030         1.82674        -2.17707
H          -1.53793         3.61678        -4.37795
H          -3.59998         4.38176        -5.31795
H          -6.68606         3.52906        -4.29005
H          -5.73378         5.38309        -6.55200
H          -7.58466         3.35088        -3.69038
H          -8.01194         5.83328        -7.10715
H         -10.62985         4.67270        -5.67739
H          -9.07061         4.69307        -5.73666
H          -3.04686         1.62086        -1.90866
H          -3.55392         0.42545        -0.45409
H           0.96603        -0.39883         0.55993

