%chk=NC1dN[C]qOrCqOrdCCqdOrCqOrdCCdCCdCdCdC1.chk
%NProcShared=20
# opt freq b3lyp/6-31g(2df,p)

Title Card Required 

0  2
N           2.77888         0.12605         0.72614
C           4.79778         0.04914         1.62210
N           3.17474         0.62107         1.54348
C           4.41662         1.06741         1.41876
O           5.07531         1.47735         0.01528
C           4.89308         1.30547         2.88231
O           3.97729         1.43053         3.67391
C           6.04861         1.77160         3.06846
C           6.67026         1.78800         4.39906
O           5.83708         2.03904         5.18455
C           7.76795         2.26710         3.49701
O           9.32730         1.33688         2.91556
C           8.13652         2.55445         5.05708
C          10.10156         2.16086         4.41910
C          10.56972         2.39356         5.77748
C          11.05552         2.47167         6.78413
C           9.49976         1.63866         5.88461
C           8.32823         0.81589         4.45247
C           6.93459         0.24985         3.06931
H           1.19403         0.35446         0.86554
H           1.45824        -0.07632        -0.21818
H           4.69306         1.00392        -0.77257
H           3.15139         1.30746         3.25981
H           7.09724         1.29648         1.91376
H           8.98504         0.89563         2.22867
H           8.10876         2.45364         6.32235
H          11.18778         1.90814         4.82103
H          10.22246         2.88859         7.31970
H          12.71487         2.54189         6.50866
H           6.28086         0.40308         1.49874

