%chk=NC1dCCdCNdC2CdCN3CqdOrCCCC2NN3CN1.chk
%NProcShared=20
# opt freq b3lyp/6-31g(2df,p)

Title Card Required 

0  1
N           1.90122        -0.24123        -0.97546
C           3.32305         0.17334        -1.30844
C           3.57617         1.36369        -0.68799
C           4.82690         1.40536        -0.00805
C           5.58768         2.55861        -0.01327
N           7.01693         2.46914         0.18588
C           7.79824         3.06414        -0.70951
C           9.24419         2.85384        -1.15392
C           9.49766         2.46901        -2.46568
N           8.52387         1.88651        -3.48816
C           8.31569         2.79336        -4.64086
O           9.10262         2.93373        -5.59119
C           7.21854         3.86844        -4.50363
C           7.78459         5.12797        -3.86616
C           7.84095         4.99448        -2.36966
C           7.09606         3.70998        -1.81722
N           6.53665         2.36370        -2.35832
N           7.29781         1.29267        -2.78328
C           6.00106         0.14118        -3.06513
N           4.60057        -0.46955        -2.03805
H           1.34628         0.57189        -0.61930
H           1.73494        -0.83764        -0.13544
H           2.76858         2.04498        -0.45258
H           5.30960         0.49273         0.27501
H           5.06738         3.20207        -0.75543
H           9.93053         3.51309        -0.61306
H          10.47232         2.79017        -2.88082
H           6.34375         3.51313        -3.98499
H           6.74645         4.11820        -5.44893
H           7.15933         5.99471        -4.11905
H           8.79944         5.35503        -4.21601
H           7.38369         5.92098        -1.95715
H           8.87357         5.14095        -2.01148
H           6.27288         4.26922        -1.38182
H           6.48359         1.80593        -1.48761
H           6.47410        -0.78894        -3.45094
H           5.50964         0.58655        -3.93168
H           4.99580        -1.10277        -1.33222

