%chk=NC1dCCCdc2ccccc2dCCdC1.chk
%NProcShared=20
# opt freq b3lyp/6-31g(2df,p)

Title Card Required 

0  1
N           1.35026        -0.07539         0.28364
C           2.67700         0.09937        -0.04492
C           2.81996         0.73655        -1.23476
C           4.18817         0.92000        -1.55749
C           4.92365         1.51139        -2.61072
C           6.26144         1.43165        -2.48614
C           6.90756         1.99921        -3.67777
C           8.19807         1.86129        -3.90992
C           9.06547         1.31322        -2.88898
C           8.61337         0.88903        -1.68248
C           7.12979         0.78257        -1.32946
C           6.78418         0.13170        -0.11156
C           5.37745        -0.29246         0.69810
C           3.96336        -0.38227         0.84501
H           0.66234         0.27989        -0.38580
H           0.97832        -0.52481         1.10391
H           2.04323         1.09015        -1.89325
H           4.50262        -0.13892        -1.66622
H           4.47086         1.61265        -0.73764
H           4.37159         1.93306        -3.43276
H           6.27502         2.51191        -4.40619
H           8.62522         2.23705        -4.84218
H          10.12351         1.34517        -3.14247
H           9.36572         0.62298        -0.94540
H           7.62781        -0.21579         0.50273
H           5.24344         0.25752        -0.15650
H           3.58809        -0.87689         1.74705

