%chk=NC1dCdCCdCdCNdCdCCdC1.chk
%NProcShared=20
# opt freq b3lyp/6-31g(2df,p)

Title Card Required 

0  1
N           2.01334        -1.29083        -0.17213
C           3.67552        -1.96803         0.09918
C           3.68082        -1.24944         1.19407
C           3.56777        -1.99871         2.21792
C           3.39840        -3.52712         1.99206
C           4.41121        -4.06109         2.67902
C           5.54712        -4.31844         3.32977
N           6.93303        -4.12272         2.94202
C           7.42763        -5.13665         2.69539
C           6.85369        -5.98350         1.93503
C           5.79884        -4.94518         0.80947
C           4.98164        -3.30870         0.31102
H           1.32623        -1.16272         0.65472
H           1.77291        -0.20220        -0.40548
H           4.27808        -1.61967         2.92852
H           3.16978        -3.86125         0.79156
H           5.40993        -5.06467         4.07907
H           7.15766        -6.80298         2.98258
H           5.55350        -6.09297         1.10366
H           5.50800        -2.43144        -0.00402

