%chk=NC1dNCdCCdCCdCCdCCdCC1dO.chk
%NProcShared=20
# opt freq b3lyp/6-31g(2df,p)

Title Card Required 

0  1
N           2.59570        -0.17252        -0.27374
C           4.79969        -0.46221        -0.57804
N           3.33586        -0.96323        -1.10432
C           4.62492        -1.10592        -1.25420
C           5.36231        -1.80922        -1.99295
C           6.88658        -2.11914        -2.31851
C           7.42399        -2.84058        -3.07632
C           8.15892        -2.28431        -2.49200
C           9.28448        -3.23355        -3.48910
C          11.10167        -2.44018        -2.65572
C          10.72056        -3.90742        -4.19693
C          11.26466        -2.93881        -3.17950
C           9.61756        -2.10826        -2.30707
C           7.21923        -1.07688        -1.22370
O           6.72788        -0.10856        -0.20656
H           1.06502        -0.52059        -0.63936
H           1.19759         0.41096         0.33915
H           5.82349        -0.97538        -1.11708
H           4.73750        -2.29291        -2.50103
H           8.34485        -1.34894        -1.50948
H           6.82187        -3.21697        -3.47167
H           9.37015        -1.26900        -1.42550
H           9.09372        -3.95895        -4.25106
H          12.29848        -2.24397        -2.44962
H          11.40806        -4.59587        -4.92009
H          12.99521        -3.28616        -3.54435
H          10.85986        -3.12909        -3.37936

