%chk=NC1dCCqdC2CdCCdC2rSCdCC1dS.chk
%NProcShared=20
# opt freq b3lyp/6-31g(2df,p)

Title Card Required 

0  1
N           0.87785        -0.10416         0.07644
C           2.26169        -0.07411        -0.00222
C           2.90796        -1.25302        -0.12355
C           4.31516        -1.57741        -0.16270
C           4.79542        -2.65600        -0.82459
C           4.04561        -3.58269        -1.66210
C           4.89617        -4.55822        -2.03342
C           6.21203        -4.28013        -1.49707
C           6.17152        -3.13475        -0.79799
S           5.34182        -0.71533         0.93944
C           5.39468         0.76358         0.08458
C           4.35114         1.57596        -0.09513
C           2.87672         1.33940         0.02838
S           1.86670         2.72967         0.01882
H           0.37460        -0.95282        -0.14826
H           0.40764         0.78836        -0.07588
H           2.27655        -2.14057        -0.15303
H           3.00268        -3.51740        -1.92311
H           4.65775        -5.41729        -2.63979
H           7.08468        -4.89569        -1.63933
H           6.99949        -2.67042        -0.28953
H           6.38342         1.12340        -0.18957
H           4.60876         2.60592        -0.34424

