%chk=NCC1CdC2CdCC3dC2CCNdCCqdOrC31.chk
%NProcShared=20
# opt freq b3lyp/6-31g(2df,p)

Title Card Required 

0  1
N           0.99863         0.10334        -0.26853
C           2.49652         0.13757        -0.24732
C           2.97016        -0.60092         0.97237
C           4.41438        -0.34970         2.01694
C           4.43535        -1.00546         3.38217
C           4.15420        -0.02590         4.43995
C           2.99652         0.31239         3.79426
C           2.50006        -1.21567         2.95990
C           3.29530        -1.95092         3.70711
C           3.23388        -3.34843         4.07799
C           2.60435        -4.34101         3.10450
N           3.72288        -4.92604         2.35588
C           3.91227        -4.36965         1.21069
C           2.99268        -3.26620         0.70173
O           2.23188        -3.52859        -0.21022
C           3.24115        -1.92651         1.37211
H           0.59140         0.79326        -0.88870
H           0.61475         0.29116         0.66612
H           2.78587         1.17682        -0.12384
H           2.86353        -0.30079        -1.17365
H           1.93656        -0.98841         1.17359
H           4.84816         0.61871         1.80694
H           3.97274        -0.47941         5.44134
H           3.42442         1.22733         3.27970
H           2.71091        -3.44215         5.03843
H           4.28699        -3.54974         4.22187
H           1.80921        -3.91529         2.47171
H           2.09623        -5.14297         3.63854
H           4.76616        -4.66169         0.56922
H           4.31225        -1.94907         0.99361

