%chk=NCCCNdC1CqdOrC2dCqCNrCdCCdNC1dCCdC2.chk
%NProcShared=20
# opt freq b3lyp/6-31g(2df,p)

Title Card Required 

0  1
N           1.05855         0.03906         0.07103
C           2.52855         0.03906         0.07103
C           3.03521         0.74042        -1.17868
C           4.55521         0.74042        -1.17868
N           5.04521         1.41871        -2.38729
C           6.33871         1.53637        -2.59694
C           6.84537         2.23773        -3.84666
O           6.01949         2.71049        -4.68905
C           8.33977         2.37367        -4.08887
C           8.81984         3.03820        -5.27298
C           7.83209         3.60363        -6.28048
N           6.46026         3.34513        -5.81987
C          10.23579         3.16700        -5.50248
C          10.71585         3.83154        -6.68659
C          12.13180         3.96034        -6.91609
N          12.59607         4.60302        -8.06124
C           9.25143        -0.02689         0.18855
C           9.73149         0.63765        -0.99556
C           8.79560         1.17339        -1.95016
C           9.27566         1.83793        -3.13427
H           0.71856        -0.43159         0.90966
H           0.71855        -0.45188        -0.75587
H           2.88522        -0.96967         0.08333
H           2.88522         0.55407         0.93847
H           2.67855         1.74915        -1.19097
H           2.67854         0.22541        -2.04612
H           4.91188        -0.26831        -1.16639
H           4.91188         1.25543        -0.31124
H           7.98370         3.13485        -7.23030
H           7.98370         4.65859        -6.37516
H           6.31574         2.33946        -5.72962
H           5.79743         3.72455        -6.49595
H          10.90641         2.78311        -4.81844
H          10.04522         4.21543        -7.37063
H          12.80243         3.57645        -6.23205
H          10.74611         0.72994        -1.16001
H           7.78098         1.08110        -1.78571
H          10.29029         1.93022        -3.29872

