%chk=NCCCdCC1dNCdCCdCCdC1N.chk
%NProcShared=20
# opt freq b3lyp/6-31g(2df,p)

Title Card Required 

0  1
N           1.05638        -0.03545         0.09708
C           2.52005        -0.02537         0.09071
C           3.07636         0.93918         1.15136
C           4.58383         0.99330         1.16635
C           5.28401         1.76002         2.02135
C           6.78134         1.77578         1.98209
N           7.40751         1.87496         0.84287
C           8.78019         1.79344         0.84703
C           9.48055         0.68086         1.12683
C           8.85202        -0.53805         1.59418
C           8.19169        -0.59913         2.75908
C           8.05897         0.53785         3.65738
C           7.40567         1.67455         3.37119
N           7.25218         2.73659         4.24920
H           0.72116        -0.65724        -0.63846
H           0.70751         0.89315        -0.13877
H           2.86938         0.26446        -0.90701
H           2.87754        -1.04325         0.28286
H           2.71068         0.63282         2.13965
H           2.69089         1.94669         0.95001
H           5.11880         0.37422         0.44688
H           4.80178         2.36019         2.78266
H           9.30878         2.69324         0.54314
H          10.56506         0.68022         1.07387
H           8.91303        -1.40592         0.94249
H           7.70290        -1.51959         3.06788
H           8.54827         0.41782         4.62068
H           7.96438         2.78466         4.97381
H           7.05013         3.62877         3.80726

