%chk=NCCdCc1ccccc2cn-2c1.chk
%NProcShared=20
# opt freq b3lyp/6-31g(2df,p)

Title Card Required 

0  1
N           1.11439        -0.05144         0.03924
C           2.59753        -0.09358         0.04355
C           3.19673        -1.51498        -0.37707
C           4.50735        -1.98565        -0.45611
C           5.36122        -3.55041        -0.96281
C           6.66152        -3.12431        -1.01409
C           7.30894        -3.99451        -1.74869
C           8.60857        -4.33410        -1.65602
C           8.45168        -5.72095        -2.29122
C           9.27443        -5.77955        -1.20652
C           9.11808        -6.89288        -1.75534
N           7.60190        -6.13352        -0.82830
C           5.95849        -5.18433        -0.74531
H           0.76843         0.86873         0.34027
H           0.74525        -0.70809         0.72569
H           2.91718         0.19229         1.05416
H           2.91912         0.70477        -0.64058
H           2.39132        -2.19062        -0.60798
H           5.17308        -1.05582        -0.24791
H           7.04636        -2.24833        -0.58109
H           6.71224        -5.12685        -2.31520
H           9.38646        -3.66483        -1.08367
H           7.59714        -7.04274        -2.34749
H           9.83434        -7.78744        -2.22241
H           4.79253        -5.25224        -1.46053

