%chk=NCqdOrC1dNCdCCdC2CdCCdC2S1.chk
%NProcShared=20
# opt freq b3lyp/6-31g(2df,p)

Title Card Required 

0  1
N           1.51899        -0.73733         0.07147
C           2.94118        -0.77337         0.04393
O           3.24010         0.40027        -0.31683
C           4.32453        -1.72781         0.53566
N           5.32560        -0.82993         0.59699
C           6.47976        -1.49009         0.65940
C           6.94667        -2.12516        -0.51084
C           7.37338        -3.79072        -0.84796
C           7.64703        -4.70928         0.15537
C           8.97453        -5.31926         0.36659
C           9.73950        -4.35243         0.83999
C           8.65244        -3.27126         1.25433
C           7.25206        -3.88205         1.27161
S           5.05947        -3.66415         0.86707
H           1.14683         0.22707        -0.09301
H           0.75462        -1.36074         0.26088
H           6.38917        -1.94511         1.67613
H           7.82020        -1.49613        -0.70821
H           6.53266        -4.39886        -1.22883
H           9.24585        -6.37789         0.35963
H          10.84981        -4.41980         0.89546
H           9.12196        -2.43391         0.63310

