%chk=Nd[SH]C1dCCdCNdNNqNrCdCdC1.chk
%NProcShared=20
# opt freq b3lyp/6-31g(2df,p)

Title Card Required 

0  1
N           1.34304        -0.36148        -0.43782
S           2.80314        -0.85495        -0.47414
C           3.61736        -2.09856        -2.05542
C           4.73971        -1.47453        -1.49342
C           5.91511        -1.79350        -2.00238
C           7.22541        -1.83501        -2.14099
N           7.69559        -2.66358        -3.09087
N           8.15938        -2.54043        -4.30143
N           8.05102        -3.97287        -5.15882
N           7.47072        -5.13775        -5.97216
C           7.47721        -4.59886        -4.01161
C           5.91661        -4.00768        -3.69064
C           4.56161        -3.45455        -3.18194
H           0.99776         0.23001         0.41921
H           3.22194        -0.66504         0.79139
H           4.98250        -0.71397        -0.72745
H           5.71217        -2.17146        -2.93003
H           7.78956        -1.37684        -1.41546
H           6.46859        -5.19466        -5.77357
H           7.81902        -6.09514        -5.62636
H           8.86081        -4.35253        -4.07258
H           3.58778        -3.19137        -3.78273

