%chk=Nd[SH]1dNN[N]CdCCdCC1dS.chk
%NProcShared=20
# opt freq b3lyp/6-31g(2df,p)

Title Card Required 

0  2
N           0.48498        -0.53075         0.47451
S           0.40068         0.76228        -0.43479
N          -1.40621         1.06020        -0.64430
N          -2.60927         2.31091        -1.52383
N          -2.29748         3.55653        -2.39978
C          -1.00148         3.48990        -2.35293
C           0.18674         3.93880        -2.66860
C           1.12689         3.08641        -2.06918
C           2.34695         2.84674        -1.90064
C           2.25514         1.64563        -1.05599
S           3.74644         0.96264        -0.57569
H          -0.25827        -1.08705         0.86571
H           1.56403         0.22510        -0.05703
H          -3.63503         2.26385        -1.49073
H          -0.86552         2.63150        -1.74927
H           0.46576         4.75976        -3.24593
H           0.57983         2.35356        -1.55382
H           3.15748         3.42270        -2.30567

