%chk=NdC1SC2dCqCdCCdC1CCNNr[N]C21CdCCdCCdN1.chk
%NProcShared=20
# opt freq b3lyp/6-31g(2df,p)

Title Card Required 

0  2
N           0.69160         0.47755         0.62658
C           1.98404         0.28336         0.59151
S           3.24164         1.43498         1.12174
C           4.83699         0.32023         1.04932
C           5.57976        -0.45780         1.89241
C           5.13326        -1.15571         3.07667
C           3.78824        -1.26926         2.92509
C           2.60464        -1.12858         1.64934
C           2.59459        -0.98119         0.05921
C           2.15095        -0.25302        -1.68714
C           2.78982         0.26075        -3.57281
N           2.13461         1.04401        -4.76150
N           3.29019         1.51198        -5.86735
N           6.72505        -0.49957         1.04129
C           5.93398         0.24181         0.03469
C           6.27346         1.67557        -0.10513
C           5.68830         2.65317        -0.78469
C           4.65466         2.52625        -1.74868
C           4.16992         1.38161        -1.85845
C           4.68248        -0.10466        -1.78363
N           5.56245        -0.61824        -1.04489
H           0.25607        -0.45359         0.77701
H           5.80888        -1.46959         3.90089
H           3.63673        -0.18072         3.02659
H           2.20109        -1.77063         2.50468
H           1.67488         0.73949        -1.50728
H           1.36663        -0.90151        -2.03468
H           3.48517        -0.47485        -3.97472
H           3.52597         1.07410        -3.63292
H           1.79232         1.96468        -4.44793
H           3.95999         0.76470        -6.07653
H           3.87027         2.31332        -5.56220
H           6.74430         2.00268         0.80694
H           5.72646         3.66743        -0.43059
H           4.03799         3.40252        -2.05726
H           3.13415         1.64693        -2.10981
H           4.16702        -0.91061        -2.35938

