%chk=NdC1SCdc2cccnc2dNCqSrdC1N.chk
%NProcShared=20
# opt freq b3lyp/6-31g(2df,p)

Title Card Required 

0  1
N           1.64652         0.30454        -0.02873
C           2.88220        -0.11056         0.00477
S           2.91721        -1.85084         0.22607
C           4.52821        -1.81198         0.36756
C           5.57784        -2.57619         0.48826
C           5.42368        -3.96113         0.47753
C           6.45054        -4.68467         0.06651
C           7.73687        -3.93307         0.14995
N           7.90791        -2.62346         0.19466
C           6.77707        -1.74642         0.19375
N           6.80576        -0.41404        -0.02673
C           5.74843         0.78308        -0.11242
S           6.76208         2.32762        -0.26872
C           4.25006         0.97440        -0.12021
N           3.47326         2.17066        -0.22890
H           1.07243        -0.55896         0.07923
H           4.85734        -0.87588         0.20615
H           4.42162        -4.33865         0.62105
H           6.32591        -5.72793        -0.18585
H           8.58807        -4.64916         0.25358
H           8.00858         1.76953        -0.21921
H           3.73789         3.13642        -0.33861
H           2.44117         2.00386        -0.21010

