%chk=NdC1CdNNdCCNdCNCdNOSS2dCC1dC2.chk
%NProcShared=20
# opt freq b3lyp/6-31g(2df,p)

Title Card Required 

0  1
N           6.72298        -2.74554         0.99345
C           8.48003        -3.53053         1.81107
C           6.06990        -2.55759         1.47843
N           5.14892        -0.92703         1.09600
N           5.28085        -1.39480         2.37186
C           6.78847        -1.19785         2.26594
C           7.29022        -2.59280         3.04052
N           8.86151        -2.14027         2.80644
C           9.58559        -3.09701         3.25414
N          10.87974        -2.66303         3.16606
C          11.93841        -3.37081         4.02992
N          13.13013        -3.18021         3.63709
O          13.81463        -3.80261         4.76506
S          15.54008        -3.54848         4.04868
S          14.98579        -5.45734         4.56538
C          13.33004        -4.83900         3.06269
C          10.89460        -4.42457         2.56105
C          12.69634        -5.36095         3.45785
H           5.14722        -1.93819         0.71089
H           4.19432        -2.04706         1.50449
H           7.04978        -1.02406         1.06454
H           6.86357        -3.78709         2.55132
H           6.86366        -2.44661         3.89641
H           9.17438        -3.94660         3.85025
H          11.28163        -2.34297         2.26447
H          11.54543        -4.45548         4.53421
H          15.09601        -5.17514         3.79465
H          14.23153        -6.22512         3.92705

