%chk=NdC1S[N]CdCdCCdCSOCdCCdCC1dO.chk
%NProcShared=20
# opt freq b3lyp/6-31g(2df,p)

Title Card Required 

0  2
N           4.22402         0.91010         0.23599
C           6.00681         1.14762         0.00255
S           4.25625        -0.12384        -0.84509
N           5.41437        -1.06090        -0.99395
C           6.07609        -1.47332        -1.96971
C           7.33902        -1.29991        -1.72286
C           8.61510        -1.12090        -1.49675
C           9.26536         0.17571        -1.32947
C          10.58852         0.34407        -1.14644
S          11.38118         1.81644        -1.49494
O          12.93093         1.71512        -0.88363
C          13.65598         2.94175        -1.09670
C          14.24732         2.95733         0.06225
C          12.28442         3.27850         0.52409
C          10.33151         2.74248         0.52348
C           8.21481         1.86203         0.41924
O           7.08268         2.04941         1.27130
H           2.87318         0.23479        -0.16425
H           5.63805        -2.02496        -2.75137
H           9.26324        -1.99351        -1.47757
H           8.62736         1.05070        -1.40830
H          11.23222        -0.49664        -1.07675
H          13.18146         4.05740        -1.02394
H          15.38133         2.06954        -0.20373
H          13.65519         4.14279         0.43889
H          11.90084         2.68817         0.79997

