%chk=NdC1NSC2dS1CdCC1dCNNC1dCdCCdC2.chk
%NProcShared=20
# opt freq b3lyp/6-31g(2df,p)

Title Card Required 

0  1
N           2.14691         1.42914        -0.70244
C           3.46648         1.35178        -1.04024
N           3.86203        -0.03140        -0.86591
S           5.09734        -0.02591         0.16064
C           5.35092         1.71748        -0.00246
S           4.84996         3.09867        -1.47244
C           6.82633         4.54232        -1.42716
C           7.54197         5.86265        -0.92441
C           6.85485         7.23953        -0.41363
C           6.70226         8.63405        -0.25229
N           5.29036         8.83293         0.05091
N           4.76112         7.60128         0.43195
C           5.79834         6.72072         0.39764
C           6.01178         5.58751         0.97601
C           6.53456         4.40900         1.24081
C           5.59115         3.36479         1.27638
C           6.08295         2.15096         1.07732
H           1.76721         0.45913        -0.42324
H           3.19886        -0.82781        -0.64941
H           6.79674         5.30032        -2.32060
H           8.64923         6.21379        -1.06883
H           7.17174         9.62730        -0.45454
H           4.96994         9.61394         0.63636
H           4.00801         7.23095        -0.16355
H           7.49735         4.03185         0.79694
H           4.57255         3.66832         0.95087
H           7.00041         1.59909         1.00610

