%chk=NdC1CqdOrN2CdCNdCCdC2CdCC1NCCdO.chk
%NProcShared=20
# opt freq b3lyp/6-31g(2df,p)

Title Card Required 

0  1
N           1.11677         0.01967        -0.08027
C           2.41244         0.03723        -0.27167
C           3.03401        -0.32524        -1.61914
O           2.30889        -0.19307        -2.57270
N           4.47274        -0.27471        -1.61034
C           5.22203        -1.09705        -0.78457
C           6.52150        -1.11779        -0.48035
N           7.59465        -0.38695        -0.89619
C           7.46983         0.66976        -1.61106
C           6.26471         1.38932        -2.06740
C           4.99127         0.97205        -1.93213
C           3.99698         2.02965        -1.66009
C           3.48946         2.08438        -0.35397
C           3.31794         0.69663         0.78046
N           2.46398         0.31330         2.11589
C           3.02412        -0.53074         3.30826
C           1.99278        -0.97415         4.43929
O           2.34764        -1.38853         5.55274
H           0.62902        -0.18441        -0.96089
H           4.61004        -1.82068        -0.24476
H           6.82532        -1.89328         0.22435
H           8.41626         1.20724        -1.83063
H           6.49846         2.40956        -2.36918
H           3.33352         2.18687        -2.54159
H           4.02381         2.97433         0.00814
H           4.29295         0.24659         0.91713
H           1.79489        -0.38281         1.71633
H           3.74558         0.07045         3.86183
H           3.46696        -1.49517         3.00924
H           0.91907        -1.05789         4.19727

