%chk=NdC1CdCCdCdC1NC1NdNNNNN1.chk
%NProcShared=20
# opt freq b3lyp/6-31g(2df,p)

Title Card Required 

0  1
N           0.84993        -0.10218         0.35906
C           2.10882        -0.12500         0.46040
C           2.86513         1.31293        -0.10462
C           4.35430         1.34392        -0.95530
C           5.28158        -0.09471        -1.32261
C           4.70364        -1.67003        -0.68811
C           2.96557        -1.67840         0.24520
N           2.46701        -2.80114         0.86187
C           3.61134        -3.54725         0.65026
N           4.79633        -2.85179         1.39526
N           4.96690        -1.53578         1.47134
N           4.19685        -0.30788         0.50004
N           3.25465        -0.64093        -1.35353
N           3.01416        -2.49710        -1.86007
N           3.83547        -3.80272        -0.84885
H           0.49696         0.81535         0.03326
H           2.51617         2.26288         0.30848
H           4.92079         2.27143        -0.77870
H           6.33883         0.05512        -1.48263
H           1.59946        -2.85092         1.35253
H           3.50398        -4.54299         1.09857
H           4.99555         0.32242         0.50218
H           2.25206        -0.37510        -1.38795
H           3.62267        -2.53400        -2.67969
H           4.84729        -3.64970        -0.94124

