%chk=Ndc1nc2ccccccc3c1dCCdCC1qCdC1Cd3rCN2.chk
%NProcShared=20
# opt freq b3lyp/6-31g(2df,p)

Title Card Required 

0  1
N           5.78673         1.47601        -0.24081
C           7.66785         2.31234        -0.21402
N           6.06296         1.92326         0.46116
C           7.65505         2.70469         1.05132
C           5.50781         2.46160         1.44025
C           6.75767         2.52194         1.95854
C           7.17778         3.83456         2.19498
C           8.36044         3.94205         2.06094
C           9.56258         4.97702         2.55077
C          10.72910         3.91874         2.72233
C          11.31776         4.49794         1.13988
C           9.99558         3.36165         0.00836
C          11.97139         4.22849         0.11564
C          13.97834         5.19880         0.69524
C          15.07386         6.26940         1.83318
C          13.53924         6.04945         3.14855
C          12.99885         7.54224         3.93259
C          11.89465         6.31119         3.38966
C          12.84017         4.90000         2.06004
C          11.50062         5.20094         2.77648
N           9.67671         3.51393         1.65755
H           4.14235         0.83975         0.02502
H           4.60077         3.11553         1.64478
H           8.20556         2.21978         2.19463
H           6.54660         4.37516         2.27271
H           9.42706         2.47472         1.51209
H           8.83528         5.40986         2.88085
H          11.43304         3.49841         1.97048
H          13.57989         4.82529        -0.19198
H          14.86319         4.75106         1.64355
H          16.26188         7.36278         1.72888
H          12.30830         8.38035         4.37487
H          13.71716         4.40668         2.48523
H          12.97235         6.26839         2.55970
H          13.09664         5.64761         3.58876
H           8.75225         2.14662         1.00791

