%chk=NdCOC1dCCdCCdCNdNNCqdOrNdC1.chk
%NProcShared=20
# opt freq b3lyp/6-31g(2df,p)

Title Card Required 

0  1
N           1.14046        -0.03283         0.07580
C           2.58119        -0.03189         0.08969
O           4.20972         0.03677         0.99716
C           6.15628         0.07167         1.44035
C           5.21898         0.14996         2.48104
C           6.49379         0.17208         2.76773
C           7.17331         0.25193         3.82534
C           8.59643         0.25216         3.82674
C           8.93885         0.34669         5.07129
N          10.09982         0.36575         5.32218
N          11.03329         0.41298         5.94390
N          12.88138         0.36992         5.37697
C          11.72616         0.32051         4.72465
O          12.50946         0.43976         6.29646
N          10.18617         0.21523         3.34809
C           8.47978         0.12553         2.17788
H           0.56483        -0.10604        -0.88771
H           2.89873        -0.11153        -0.95984
H           4.58274         0.21534         3.34738
H           7.22876         0.12166         2.09513
H           6.62504         0.31398         4.64000
H           9.66224         0.13743         2.31465
H           8.64606         0.41645         5.98955
H          13.58230         0.31517         4.65644
H           7.99808         0.01765         0.73997

