%chk=NdCqOrc1ccc2cqdNOOrccccccc-2c[nH]1.chk
%NProcShared=20
# opt freq b3lyp/6-31g(2df,p)

Title Card Required 

0  1
N           1.04754         0.06289         0.05241
C           2.35446         0.10327         0.09204
O           3.03267         0.92729         0.90074
C           3.31851        -0.80946        -0.80372
C           4.80292        -0.88548        -0.87833
C           5.76459        -2.21697        -2.18507
C           7.20692        -1.99585        -1.96806
C           7.39200        -2.94476        -2.89933
N           6.67156        -3.66461        -3.60580
O           5.35742        -3.56684        -3.50984
O           4.67207        -4.38934        -4.31705
C           8.79910        -3.20922        -3.15887
C           9.20301        -4.08286        -4.01627
C           9.66633        -3.27656        -3.22496
C          10.76995        -4.15432        -4.08640
C          12.44651        -3.79190        -3.73072
C          11.11859        -3.09035        -3.04222
C           9.08034        -1.96151        -1.93436
C           7.25365        -1.33763        -1.32208
N           5.06914        -1.21333        -1.20008
H           0.52525         0.69645         0.67419
H           2.52649         1.52023         1.48266
H           5.08588        -0.09234        -0.09994
H           4.72680        -2.48963        -2.45266
H           3.77334        -4.12639        -4.05899
H          10.10359        -2.42052        -2.38483
H           8.65626        -4.59951        -4.52331
H          11.06549        -2.23235        -2.20016
H          11.07486        -5.02902        -4.94484
H          13.66490        -3.72778        -3.66780
H          12.18233        -4.04000        -3.97421
H           7.00228        -0.31863        -0.32202
H           3.67976        -1.74605        -1.72290

