%chk=Nn1ccc2cqc3cqs1rdCCdC3rCdNCd2.chk
%NProcShared=20
# opt freq b3lyp/6-31g(2df,p)

Title Card Required 

0  1
N           1.22985        -0.09159         0.22791
N           2.57161         0.11181         0.02530
C           2.79845         1.01478        -0.98442
C           3.98487         1.22347        -1.21142
C           5.15652         1.71832        -1.75067
C           6.46534         1.62363        -1.63815
C           6.82399         0.68334        -0.56387
C           5.90767        -0.15714         0.47704
S           3.97659        -0.74439         0.91447
C           6.77171        -1.15005         0.83953
C           8.03480        -0.61244         1.27980
C           8.15684         0.25806         0.04609
C           6.78087         2.96733        -3.13766
N           7.46070         2.27654        -2.36514
C           5.69702         2.41820        -2.52065
H           0.61648         0.46026        -0.37427
H           0.77605        -0.69338         0.89129
H           2.03165         1.53228        -1.54913
H           4.50441         0.62242        -0.57434
H           8.15458        -1.26154         0.91173
H           7.36973        -1.57665         2.07525
H           9.16187         0.48417        -0.33399
H           7.59051         3.46389        -3.66791
H           4.93013         3.00704        -3.16780

