%chk=NN1CNNNd[SH][SH]dCdNCCqdOrCdN1.chk
%NProcShared=20
# opt freq b3lyp/6-31g(2df,p)

Title Card Required 

0  1
N           3.61369         0.54608         0.60987
N           5.99917         1.28600         0.91924
C           3.93496         1.43393         1.11603
N           5.21475         0.81948         0.70335
N           5.30594         2.47053         1.91657
N           6.51068         2.57083         2.11084
S           7.38444         3.46075         2.76786
S           9.56761         1.88281         2.36668
C           9.14300         3.71374         3.45730
N          10.16477         4.45948         3.70898
C          11.79574         3.32515         3.16044
C          11.24022         4.78745         3.47629
O          11.97746         5.85955         4.49150
C           9.80872         3.60762         1.92306
N           8.14798         2.51343         1.33024
H           1.98667         0.74556         0.64142
H           2.16999        -0.22377         0.52227
H           3.01481         1.02655         2.07645
H           3.02564         2.15094         0.47281
H           4.91155         0.94189        -0.31213
H           4.48795         2.72188         2.13056
H           7.21744         2.73639         3.70314
H           9.91110         2.64363         0.73547
H          12.70304         4.41584         2.40849
H          12.78409         3.50447         3.92390
H          11.28920         4.55049         2.66254

