%chk=NN1NCdCCdC2CCCCdC2CdCCdC1O.chk
%NProcShared=20
# opt freq b3lyp/6-31g(2df,p)

Title Card Required 

0  1
N           1.03901         0.16292        -0.32960
N           2.24554         0.29355        -0.98912
N           3.15440         1.30563        -0.93325
C           4.72287         0.91456        -0.88060
C           5.54739         0.70626        -1.90882
C           6.91953         0.33319        -2.25745
C           7.49386         0.41976        -3.50163
C           8.97205         0.44320        -3.46499
C           9.75481         0.60764        -4.72912
C           8.98994         0.77234        -6.02312
C           7.47866         0.75987        -5.94764
C           6.80930         0.60314        -4.82438
C           5.35199         0.41480        -4.61780
C           4.07969         0.32081        -4.72407
C           3.11983        -0.28167        -3.27790
C           2.86796        -0.70351        -1.71257
O           3.57771        -1.13476        -0.35419
H           0.34096         0.26476        -1.06576
H           0.79190         0.85004         0.39166
H           2.88990         1.54628        -1.91542
H           5.10257         0.41277         0.01244
H           4.91730         0.95350        -2.70119
H           7.57969         0.17790        -1.41146
H           9.30121        -0.47786        -2.97545
H           9.22884         1.30610        -2.83408
H          10.43277        -0.25105        -4.80661
H          10.37444         1.50195        -4.59247
H           9.33452        -0.02367        -6.69499
H           9.30015         1.73523        -6.43842
H           6.99041         0.85590        -6.92842
H           5.36029        -0.28646        -3.83312
H           3.83910         0.62313        -5.78769
H           2.28317         0.23290        -3.79081
H           3.16209        -0.51877         0.42409

