%chk=NNc1ccccccc2cccc-2cc1.chk
%NProcShared=20
# opt freq b3lyp/6-31g(2df,p)

Title Card Required 

0  1
N           1.43175         0.55636        -0.32567
N           3.24315         1.20721        -0.61596
C           4.64677         2.26827        -1.49524
C           5.01235         0.85186        -1.12884
C           5.48097         0.65379        -2.31533
C           6.86453         0.98151        -2.22895
C           7.47319         1.57226        -3.24476
C           8.85243         1.64311        -3.23323
C           9.34318         2.14777        -4.37519
C          10.52394         2.54766        -3.94168
C          11.64009         1.79431        -3.84872
C          12.72854         2.60452        -3.82771
C          11.86099         3.82322        -3.78408
C           9.88457         3.91562        -3.35652
C           8.08308         3.84523        -2.88023
C           6.09116         3.20556        -2.21645
H           1.04810        -0.14302         0.60573
H           0.89073        -0.17073        -0.94162
H           3.41412         0.29810         0.09706
H           5.22740         0.41351        -0.15379
H           4.61028         0.78105        -3.00946
H           7.33700         0.89628        -1.23756
H           6.97064         2.27647        -3.98153
H           9.42807         1.58076        -2.27338
H           8.95374         2.97607        -5.06144
H          11.63696         0.72939        -3.79634
H          13.82716         2.02142        -3.97335
H          13.03093         4.35452        -4.21810
H           8.51187         4.79967        -3.72718
H           4.96287         3.19162        -2.96667

