%chk=NNC1dCCd[C]NNdCCdNS1.chk
%NProcShared=20
# opt freq b3lyp/6-31g(2df,p)

Title Card Required 

0  2
N           1.39862        -0.69720        -0.36925
N           2.85573        -1.07454        -0.46584
C           4.06614        -2.12421        -1.01615
C           4.95876        -1.24910        -0.64195
C           6.42664        -1.35330        -0.65560
C           7.54895        -1.34114        -1.07339
N           7.91652        -2.28920        -2.13204
N           8.86534        -2.65574        -3.09410
C           8.88174        -3.95382        -3.06640
C           8.31544        -4.40383        -1.74527
N           7.01790        -4.67495        -1.94256
S           5.07153        -3.84672        -1.89143
H           1.28185         0.26279         0.08932
H           0.91892        -1.22088         0.36793
H           3.32838        -0.22464        -0.02398
H           4.87693        -0.31044        -0.11630
H           6.04547        -2.02269        -1.42241
H           7.14890        -3.01663        -2.05862
H           9.28195        -4.81057        -3.71471
H           9.59961        -4.49637        -1.55245

