%chk=NNCNdNC1CdNCqdOrCNdC[CH]NC1.chk
%NProcShared=20
# opt freq b3lyp/6-31g(2df,p)

Title Card Required 

0  2
N           1.05837         0.09085        -0.04518
N           2.50419         0.07380        -0.05123
C           3.04582         1.40900        -0.34614
N           4.52107         1.35662        -0.40937
N           5.05356         2.48392        -0.49373
C           6.54173         2.48137        -0.52374
C           7.11233         1.56622         0.55432
N           8.22987         1.88404         1.12855
C           8.87305         0.86775         1.80450
O           8.58745         0.53522         2.95265
C          10.11155         0.28446         1.06341
N           9.89623         0.28054        -0.41230
C           9.96768         1.47643        -0.89476
C           9.44391         1.81065        -2.23398
N           8.33536         2.74475        -2.33304
C           7.06824         2.06414        -1.92204
H           0.68456        -0.82796         0.21403
H           0.65653         0.31192        -0.95948
H           2.89679        -0.57779        -0.73420
H           2.71487         2.12301         0.42017
H           2.66661         1.74949        -1.31834
H           6.86258         3.50787        -0.31307
H           6.62007         0.58984         0.72105
H          10.26280        -0.75031         1.39046
H          11.00473         0.85942         1.33567
H          10.26351         2.35345        -0.28905
H           9.60854         1.08437        -3.02400
H           8.21235         3.02110        -3.30939
H           7.17626         0.97148        -1.98396
H           6.32142         2.32121        -2.68417

