%chk=NNdC1NCdNCdCC2dCCdCCdCC2dNN1.chk
%NProcShared=20
# opt freq b3lyp/6-31g(2df,p)

Title Card Required 

0  1
N           1.69439        -0.48012        -0.23861
N           3.18714        -1.11960         0.02600
C           4.07655        -1.99259        -0.80843
N           4.83697        -0.91615        -1.16278
C           5.66275        -1.19293        -2.14475
N           6.92498        -1.17188        -2.02097
C           7.41295        -2.03439        -2.91735
C           8.70580        -2.28596        -2.86201
C           8.88748        -3.58085        -3.35079
C           8.92495        -3.86920        -4.67014
C           9.43384        -4.91672        -5.53092
C          10.33024        -5.83415        -5.18158
C          10.65461        -5.95837        -3.75607
C           9.90919        -5.54805        -2.56935
C           8.29791        -4.49071        -2.24875
N           6.96774        -4.20876        -1.42884
N           5.27688        -3.31124        -0.99592
H           1.24010         0.24701         0.40586
H           0.89001        -0.96199        -0.68409
H           5.12311        -0.37524        -0.34595
H           5.11772        -1.80699        -2.89867
H           6.78114        -2.86584        -3.34450
H           9.29249        -1.90611        -2.02723
H           8.35678        -3.17899        -5.27092
H           9.15000        -4.87065        -6.58168
H          10.79770        -6.44791        -5.98976
H          11.68751        -6.44511        -3.81534
H          10.80010        -5.50287        -1.86985
H           4.72220        -3.66312        -1.79365

