%chk=NNN1CSC2CNSC2dCCdNNdCSS1.chk
%NProcShared=20
# opt freq b3lyp/6-31g(2df,p)

Title Card Required 

0  1
N           0.77587        -0.59869         0.22520
N           2.17174        -0.81666         0.26892
N           2.82417        -2.05370         0.90814
C           4.22729        -1.86213         0.35388
S           5.08961        -3.28635        -0.34154
C           6.79783        -3.04114         0.17056
C           7.34496        -1.67920        -0.27671
N           8.65255        -1.58600         0.37217
S           8.68745        -2.23498         1.90372
C           7.22442        -3.19418         1.63055
C           6.78750        -3.96945         2.64291
C           5.68947        -4.90810         2.42721
N           5.12035        -5.73900         3.24330
N           3.99166        -6.17543         2.49818
C           2.91546        -5.78849         3.11668
S           1.77016        -4.53058         2.55096
S           2.05464        -3.58497         0.64940
H           0.58704         0.35736        -0.11682
H           0.34021        -0.63783         1.14285
H           2.66070         0.02617         0.60699
H           4.80712        -1.29516         1.09062
H           4.19188        -1.21171        -0.53803
H           7.33868        -3.82162        -0.37974
H           6.72845        -0.84286         0.07472
H           7.42318        -1.60983        -1.36625
H           9.00777        -0.63203         0.34673
H           7.24123        -3.97173         3.62687
H           5.25855        -4.88729         1.43079
H           2.77900        -6.17743         4.14846

