%chk=NOC1CdNC2dCCdCC2dCCdCNdN1.chk
%NProcShared=20
# opt freq b3lyp/6-31g(2df,p)

Title Card Required 

0  1
N           1.06486        -0.20775        -0.19707
O           2.49218        -0.27376        -0.56992
C           2.99694        -1.64656        -0.96788
C           4.45086        -1.40832        -0.55731
N           5.23506        -2.41154        -0.30457
C           6.57364        -2.23295        -0.50200
C           7.46802        -1.73514         0.35271
C           8.80057        -1.98837        -0.16277
C           8.74393        -2.63992        -1.34201
C           7.33598        -2.83946        -1.64808
C           6.85328        -3.41612        -2.77543
C           5.42556        -3.36343        -2.92344
C           4.38408        -3.48262        -3.69568
N           3.12580        -2.99794        -3.28254
N           2.73555        -2.12825        -2.41047
H           0.97744         0.76953         0.12693
H           0.98496        -0.72755         0.68100
H           2.55911        -2.34011        -0.24074
H           4.81345        -0.36405        -0.45750
H           7.20175        -1.31562         1.30649
H           9.69283        -1.71640         0.37426
H           9.57104        -2.96484        -1.95260
H           7.50107        -3.78878        -3.56559
H           4.96851        -3.17671        -2.00169
H           4.50502        -3.91697        -4.69762

