%chk=NSc1ccc2cccccc-2sccccs1.chk
%NProcShared=20
# opt freq b3lyp/6-31g(2df,p)

Title Card Required 

0  1
N           0.85810        -0.04039         0.05896
S           2.39833        -0.12603        -0.12895
C           3.73840         0.31364         0.71003
C           4.38672         0.84585         1.76997
C           5.03919         1.45065         2.98100
C           6.41286         1.57320         3.22182
C           6.86139         2.20539         4.47865
C           8.10500         2.43541         4.93551
C           9.37119         2.13660         4.32981
C           9.61877         1.55092         3.17350
C           8.70823         1.08681         2.25497
C           7.40307         1.09243         2.26609
S           6.94972         0.39377         0.88898
C           7.99060        -0.15441        -0.21049
C           7.38339        -0.65318        -1.19826
C           7.60718        -1.24867        -2.38087
C           6.20676        -1.26724        -2.42981
S           4.53286        -0.61288        -1.12971
H           0.55619        -0.46212        -0.83486
H           0.56889         0.92175         0.01403
H           5.10245         0.53839         1.15454
H           4.38864         1.83781         3.74938
H           6.05640         2.52914         5.12511
H           8.21117         2.91803         5.90684
H          10.25418         2.42106         4.87865
H          10.61941         1.37558         2.82694
H           9.17929         0.65363         1.39446
H           8.99990        -0.15536        -0.21462
H           6.42883        -0.49155        -0.86187
H           8.79787        -1.20149        -2.29230
H           6.46398        -1.78025        -3.43790

