%chk=NtCc1cccccc2nscccc1-2.chk
%NProcShared=20
# opt freq b3lyp/6-31g(2df,p)

Title Card Required 

0  1
N           0.91657        -0.05021         0.02276
C           2.17754        -0.05021         0.02276
C           3.69754        -0.05021         0.02276
C           4.34607         0.08363        -1.20934
C           5.60494         0.07048        -1.08963
C           5.54532         0.23912        -2.64452
C           7.00112         0.03746        -0.79814
C           7.80917         0.25253        -2.76609
C           9.13947         0.29652        -3.16754
N           9.97089         0.49370        -4.98423
S          12.13088         0.35067        -3.66460
C          12.09437         0.62355        -6.17942
C          12.02445         0.44508        -4.53245
C           9.34623         0.31281        -3.31945
C           6.65548         0.16226        -1.93451
H           3.88330         0.18220        -2.11701
H           6.16915        -0.05751         0.09115
H           6.04984         0.32647        -3.44535
H           8.44792         0.10750        -1.42949
H           8.16748         0.44364        -4.52390
H          12.86367         0.73913        -7.24454
H          14.31196         0.52389        -5.25852
H          11.24722         0.45744        -4.66153

