%chk=NtCC1CdCCdCCdCCdCCdNCdc2ccsc2dC1.chk
%NProcShared=20
# opt freq b3lyp/6-31g(2df,p)

Title Card Required 

0  1
N           1.03869         0.08314         0.03989
C           2.29966         0.08314         0.03989
C           3.81966         0.08314         0.03989
C           4.26148        -0.96470        -0.96099
C           5.47641        -1.05885        -1.15687
C           5.88653        -2.19378        -2.39015
C           7.41125        -2.35362        -2.84922
C           7.85495        -3.44908        -3.31173
C           8.97373        -3.40883        -4.02497
C           9.67292        -4.65145        -4.39671
C          10.64375        -4.37670        -4.94626
C          11.43780        -5.87090        -5.79908
N          12.50161        -5.59535        -6.10712
C          12.71293        -6.48801        -5.48662
C          11.46645        -5.17659        -3.99415
C          13.29263        -6.69594        -5.64740
C          14.54286        -6.39516        -5.61570
S          12.07848        -4.90710        -3.91286
C           9.21327        -3.41157        -2.44976
C           6.85950        -1.82827        -1.25093
H           4.20123         1.04528        -0.26399
H           3.63556        -1.54962        -1.48833
H           6.32070        -0.50283        -0.59679
H           5.42481        -2.83545        -2.66261
H           8.35284        -1.58355        -2.00313
H           7.31174        -4.02432        -3.78708
H          10.00034        -2.47472        -3.04452
H           9.16129        -5.25377        -4.93512
H          11.08186        -3.30126        -4.89289
H          10.94139        -6.52565        -6.11024
H          12.78316        -7.57190        -7.09513
H          14.36769        -7.91124        -7.23074
H          16.13414        -7.51262        -6.89046
H           6.50133        -1.57424         0.24345

