%chk=NtCC1dCCdCCdCCdCNdCCqdOrCdCdCdC1.chk
%NProcShared=20
# opt freq b3lyp/6-31g(2df,p)

Title Card Required 

0  1
N           1.06116        -0.07888        -0.00621
C           2.32212        -0.07888        -0.00621
C           3.84212        -0.07888        -0.00621
C           4.28248         0.37440        -1.11610
C           5.36687         0.44216        -1.28202
C           6.50674         0.93813        -2.49643
C           7.89191         1.07282        -2.82624
C           8.75233         1.38508        -3.59083
C           9.86633         1.33689        -3.47285
C          10.72212         1.78487        -4.56975
N          11.72557         1.95753        -4.99254
C          13.07565         2.16544        -5.50162
C          14.83856         1.99862        -5.09314
O          15.56018         1.64440        -4.22581
C          12.97767         1.70127        -4.36504
C          11.16004         1.11654        -2.93329
C           9.11339         0.68594        -1.87893
C           6.79228         0.29034        -0.91027
H           3.97339         0.71868        -1.95909
H           5.97345        -0.06971        -0.02865
H           6.09292         1.22015        -3.18699
H           7.51252         0.79295        -2.14094
H           8.31720         1.65598        -4.25415
H          10.56257         0.67378        -1.84916
H          10.50715         2.10082        -5.34339
H          12.70544         2.52157        -6.37363
H          14.15066         2.40595        -6.09052
H           7.35189        -0.18847         0.26214

