%chk=NtCCNNC1dCCdNC2dCCdCCdC1CdC2.chk
%NProcShared=20
# opt freq b3lyp/6-31g(2df,p)

Title Card Required 

0  1
N           0.95002        -0.07862        -0.03634
C           2.21098        -0.07862        -0.03634
C           3.73098        -0.07862        -0.03634
N           4.71625         1.59614        -0.70881
N           6.56403         2.48685        -1.04055
C           7.92778         3.94003        -1.62482
C           8.11717         2.57825        -1.10575
C           9.00897         3.46925        -1.48733
N          10.16403         3.07179        -1.31659
C          10.79132         4.09645        -1.73829
C          12.12083         4.16603        -1.76373
C          12.68457         5.23407        -2.19783
C          13.46151         6.10386        -2.55063
C          11.47256         6.40764        -2.66113
C           9.67762         5.42069        -2.23535
C           8.55860         6.24310        -2.60683
C           9.84815         5.81192        -2.43848
H           4.11484        -0.86810        -0.68276
H           4.11416        -0.19340         0.97802
H           4.04607         2.08512        -0.03258
H           6.60088         1.24613        -0.57416
H           8.45567         1.59921        -0.72673
H           8.98204         4.43906        -1.95503
H          12.81347         3.53904        -1.50802
H          11.76713         5.12444        -2.15460
H          14.50271         5.17280        -2.17260
H          12.88709         7.00031        -2.91754
H           7.68323         5.63021        -2.35931
H          10.10749         7.06244        -2.94353

