%chk=NtCCCOCdS1NdCCdNCdCNdN1.chk
%NProcShared=20
# opt freq b3lyp/6-31g(2df,p)

Title Card Required 

0  1
N           0.96922         0.09514         0.00113
C           2.23018         0.09514         0.00113
C           3.75018         0.09514         0.00113
C           4.53284         1.58170         0.40946
O           6.18992         1.83598         0.23351
C           6.95282         3.17107         0.36489
S           9.11927         3.45228         0.41828
N           8.68980         4.08612         1.91594
C           9.74938         4.31817         2.53457
C          10.03362         5.73818         2.92074
N          11.19960         5.94668         3.36688
C          11.80014         6.81523         2.49793
C          12.07780         6.38081         1.23041
N          11.41836         5.18275         0.57804
N          10.08358         5.17086         0.15000
H           4.11410        -0.14499        -1.00467
H           4.13585        -0.67766         0.67438
H           4.29407         1.77217         1.46582
H           4.09039         2.35513        -0.21988
H           6.28548         3.82998         0.95560
H          10.68956         3.71962         2.37787
H           9.45783         6.49469         2.31920
H          11.66926         7.87605         2.75039
H          13.21274         6.40349         1.23181

