%chk=Oc1cc2ccc3ccc-3cc-2ccn1.chk
%NProcShared=20
# opt freq b3lyp/6-31g(2df,p)

Title Card Required 

0  1
O           0.96641         0.16340         0.17153
C           2.35052         0.19948         0.24088
C           2.67963        -0.47921        -1.06436
C           3.93851        -0.49934        -1.10277
C           5.08734        -0.90034        -1.87904
C           6.94202        -0.90344        -1.88153
C           7.70142        -1.46727        -2.96429
C           8.96758        -1.59029        -3.20057
C           8.63070        -2.21431        -4.40061
C           7.21698        -2.07484        -4.13224
C           5.68094        -1.63099        -3.27708
C           5.23443        -0.76477        -1.60866
C           5.59093         0.13243         0.11264
C           4.76966         0.73372         1.26829
N           3.08759         0.72598         1.25335
H           0.60163        -0.26055        -0.64370
H           2.19776        -0.91388        -1.89999
H           4.03266        -1.33489        -2.71017
H           7.52926        -0.49613        -1.09673
H           9.68481        -1.22443        -2.49717
H           9.56658        -2.50390        -4.95756
H           4.91115        -2.02716        -4.04062
H           4.54617         0.23329         0.30590
H           5.23314         1.23091         2.22424

