%chk=OC1dC2ONdCqCdC1rC1CdCCdCC1dNCS2.chk
%NProcShared=20
# opt freq b3lyp/6-31g(2df,p)

Title Card Required 

0  1
O           1.17983        -0.16986         0.08495
C           2.55102        -0.10466         0.07391
C           3.43872        -1.04770         0.46599
O           4.24723        -1.46732        -0.60947
N           5.47372        -0.82209        -0.61780
C           5.45886         0.45854        -0.43368
C           4.32140         1.49060        -0.30172
C           3.04118         1.22973        -0.10834
C           6.84162         1.00765        -0.21420
C           7.02787         1.72444        -1.50763
C           7.23933         3.03194        -1.55293
C           7.46490         3.76680        -0.32791
C           7.29839         3.24995         0.90979
C           6.80157         1.81892         1.07043
N           6.29565         1.31113         2.16097
C           5.91409        -0.17937         2.21664
S           4.16141        -0.88843         2.13319
H           0.88838        -1.09427         0.04231
H           4.62146         2.53677        -0.22276
H           2.31548         2.03488         0.00691
H           7.61202         0.23999        -0.08629
H           6.82795         1.14415        -2.40936
H           7.24222         3.53757        -2.51680
H           7.79407         4.79344        -0.47958
H           7.51484         3.84701         1.78866
H           6.13883        -0.41854         3.26646
H           6.66212        -0.80223         1.70195

