%chk=Oc1nncccccc2c1dCCdNNdNCd2.chk
%NProcShared=20
# opt freq b3lyp/6-31g(2df,p)

Title Card Required 

0  1
O           5.23177         2.36436        -1.48338
C           7.49376         3.22469        -2.06871
N           5.93787         2.28162        -1.44729
N           5.35693         0.86782        -0.55392
C           6.44767         2.09477        -1.32586
C           8.00331         2.11019        -1.33335
C           8.53138         3.88185        -2.44417
C           9.22624         3.07458        -1.94371
C           9.61439         4.09268        -2.58530
C          11.35149         3.87895        -2.45088
C          10.25178         4.33104        -2.73373
C          12.63313         5.04673        -3.18529
C          14.47304         6.55481        -4.13582
N          13.88939         5.88115        -3.71057
N          12.56132         6.14716        -3.87770
N          11.81308         4.35049        -2.74534
C          11.01820         5.15572        -3.25419
H           3.88953         1.42727        -0.90756
H           4.81309         3.19802        -2.02227
H           7.13752         1.22978        -0.78251
H           6.80145         4.18666        -2.64328
H           9.41877         2.35541        -1.49133
H           8.96809         5.09383        -3.21569
H          14.64464         5.10009        -3.22042
H          15.19830         7.81268        -4.92766
H          11.05619         6.02895        -3.80457

