%chk=OCC1dCCdC2CdCCdNCNdC2CdC1.chk
%NProcShared=20
# opt freq b3lyp/6-31g(2df,p)

Title Card Required 

0  1
O           1.01213        -0.01583         0.05479
C           2.44845        -0.01041        -0.00749
C           2.88391        -0.66587        -1.36580
C           2.67781        -1.96699        -1.35352
C           2.96792        -2.86348        -2.38265
C           3.22726        -2.96404        -3.66338
C           4.03415        -4.02065        -3.91934
C           3.51721        -5.28765        -3.72475
C           4.09362        -5.85315        -4.91647
N           2.98654        -6.49270        -5.18655
C           2.96019        -5.45556        -6.32903
N           3.30978        -3.47723        -6.08843
C           3.38006        -2.37870        -4.97792
C           3.67640        -0.63139        -4.05284
C           3.44086        -0.08535        -2.66078
H           0.72670         0.31729         0.92438
H           2.78435        -0.61562         0.86465
H           2.80088         1.00601         0.17296
H           2.29286        -2.46478        -0.46874
H           2.76179        -3.83779        -1.98916
H           4.78244        -3.92908        -4.66804
H           2.59970        -5.47352        -3.21958
H           4.76104        -5.21923        -5.91467
H           2.43629        -6.04080        -7.13300
H           3.89250        -6.22878        -6.81481
H           4.13297         0.30057        -4.49061
H           3.60410         0.99642        -2.29222

