%chk=OCCCCC1NOCdCCdCCdCCdCCdC1O.chk
%NProcShared=20
# opt freq b3lyp/6-31g(2df,p)

Title Card Required 

0  1
O           1.08542         0.04820         0.00982
C           2.52751         0.03918         0.00537
C           3.13259        -1.21549        -0.81480
C           5.06923        -1.38585        -0.85463
C           6.49727        -2.82486        -1.46313
C           8.57706        -3.67278        -1.65696
N           7.28511        -4.00059        -2.49852
O           8.47420        -3.49464        -3.06047
C           9.10768        -4.54873        -3.52617
C          10.37601        -4.27782        -3.78339
C          11.10451        -5.45909        -4.15106
C          12.40153        -5.23107        -4.43586
C          13.16982        -6.29505        -5.14033
C          14.55840        -6.06267        -5.11912
C          14.88366        -7.36679        -4.74627
C          14.18202        -6.68083        -3.27096
C          12.39049        -5.71172        -2.25503
C          10.71564        -4.80393        -1.79924
O           9.97393        -3.79937        -0.45864
H           0.76865         0.81910         0.52259
H           2.85735        -0.00287         1.04357
H           2.85803         0.98032        -0.43727
H           2.66817        -1.08812        -1.80877
H           2.65844        -2.07310        -0.32839
H           4.98932        -1.25108         0.24005
H           5.01303        -0.30235        -1.26310
H           5.40170        -2.47089        -2.44501
H           5.22341        -3.36563        -1.14616
H           8.11582        -2.27658        -1.83069
H           6.79446        -3.43594        -3.29140
H           8.50123        -5.40884        -3.57288
H          10.94166        -3.41990        -3.00673
H          10.64575        -6.43210        -4.30059
H          13.05344        -4.54136        -3.60433
H          12.78139        -7.43505        -5.05117
H          15.26285        -5.38391        -4.19029
H          14.88171        -8.38623        -5.61219
H          15.70518        -6.85149        -3.80589
H          13.37391        -6.73904        -3.02449
H           8.95966        -3.07355        -0.13661

