%chk=OCOC1dCdCdCCdCdCN2CdCSC1dCCdNO2.chk
%NProcShared=20
# opt freq b3lyp/6-31g(2df,p)

Title Card Required 

0  1
O           1.02757         0.19933         0.54159
C           2.55426         0.36181         1.20545
O           2.66031         0.78295         3.06041
C           3.73638         1.05795         4.54115
C           4.69816         0.26717         4.10713
C           5.37953        -0.63754         4.28399
C           5.79412        -1.04659         5.44343
C           4.82366        -1.15325         6.49718
C           5.29456        -1.31539         7.67710
C           5.67238        -1.39205         8.89033
N           4.92832        -0.72620         9.78889
C           5.49025        -0.08263        10.83902
C           4.91008         1.15149        10.58318
S           5.02991         1.80154         8.41115
C           3.82150         1.46745         6.46922
C           2.59998         1.83481         6.89177
C           2.47774         1.38186         8.32482
N           2.88922         0.13216         8.46101
O           3.44431        -0.38490         9.66984
H           0.98750         0.23778        -0.46976
H           2.88412         1.18065         0.48715
H           2.98028        -0.57511         0.55106
H           6.81058        -0.79129         5.67228
H           3.74713        -0.94700         6.38177
H           6.39278        -2.09680         9.27252
H           5.86175        -0.83565        11.64417
H           4.53015         1.50415        11.72073
H           1.99314         1.60699         6.04791
H           2.40011         2.25177         9.05527

