%chk=Od[SH]C1CdCNdCCdCNdCCdCCdNNdCS1.chk
%NProcShared=20
# opt freq b3lyp/6-31g(2df,p)

Title Card Required 

0  1
O           2.52588        -1.06886        -0.12354
S           4.19741        -1.89610        -0.01951
C           6.20604        -3.67677        -0.54832
C           5.53958        -1.91521         0.06835
C           6.02712        -2.91784         0.84304
N           7.28569        -2.55243         0.76366
C           7.74026        -3.72936         0.92519
C           9.16160        -3.65869         1.06973
C           9.87151        -4.80164         1.40009
N          11.15666        -4.84762         0.86167
C          11.75753        -5.92192         1.33932
C          13.32326        -5.90740         1.28997
C          14.03212        -6.99808         1.70972
C          15.37935        -7.10201         1.12827
N          14.64499        -8.03512         0.48641
N          12.88189        -7.23660        -0.33995
C          11.09224        -6.43283        -0.59748
S           8.70520        -5.22768        -0.64990
H           3.60961        -0.26833         0.65792
H           4.69571        -3.20811        -0.02329
H           5.57132        -0.63211         0.06978
H           5.02666        -4.11611         0.78911
H           7.02362        -4.83277         0.75359
H           9.52527        -2.89239         0.35570
H           9.24853        -5.97436         1.35322
H          11.13948        -7.05939         1.20368
H          13.81254        -5.18349         0.61686
H          13.39456        -8.21954         1.51889
H          16.08119        -6.30334         0.75157
H          12.40125        -7.42687        -0.05510

