%chk=OdC1CdCC2dCCdCCdC3CqdC23rO1.chk
%NProcShared=20
# opt freq b3lyp/6-31g(2df,p)

Title Card Required 

0  1
O           1.93478         0.22109        -0.69127
C           2.83553         0.90431        -0.24736
C           3.04144         0.99827         1.19621
C           4.32641         0.72566         1.47589
C           5.09858         1.92741         1.68165
C           4.98513         2.60416         2.83823
C           5.71556         3.80991         3.10984
C           5.76828         4.83305         2.24443
C           5.01215         4.85980         0.97322
C           4.77916         3.91175         0.03937
C           4.83246         2.64307        -0.64884
C           5.48028         2.68144         0.49847
O           3.67195         1.77459        -0.95771
H           2.51614         1.87474         1.57008
H           4.88924        -0.00066         0.87875
H           4.21699         2.32214         3.55208
H           6.26002         3.80910         4.05208
H           6.33618         5.71559         2.54420
H           4.52203         5.82658         0.85313

