%chk=OdC1SCqOrNdCCdCCdCCdCCdC1F.chk
%NProcShared=20
# opt freq b3lyp/6-31g(2df,p)

Title Card Required 

0  1
O           3.72695         0.64245        -0.31129
C           5.36252         1.24317        -0.71178
S           3.06888         1.79603        -0.79415
C           4.96402         1.62285        -0.61338
O           5.26347        -0.18868        -1.46772
N           5.59614         2.84980        -1.22046
C           6.87015         3.12340        -0.93707
C           7.58097         4.10131        -1.82831
C           8.25664         3.53903        -0.89977
C           9.23341         4.81628        -1.89039
C          10.76280         4.36930        -1.21907
C          10.98830         5.81182        -2.48013
C          11.19469         4.40853        -2.18192
C           9.38569         2.88175        -2.06770
C           7.61431         1.81192        -1.66218
F           6.59048         0.77443        -0.31929
H           5.16237         1.24388         0.87544
H           4.96019         0.15523        -2.28051
H           7.93464         1.84528        -0.28467
H           6.88762         4.62548        -2.10729
H           9.34192         2.29382        -0.72757
H           9.19958         5.69203        -2.58481
H          11.84547         3.37064        -1.43797
H          11.49269         6.74923        -3.04475
H          12.89051         4.89421        -2.22967
H          10.52851         4.12663        -2.68267

