%chk=OdC1SCdCCdCCdCdCCdCCdCS1.chk
%NProcShared=20
# opt freq b3lyp/6-31g(2df,p)

Title Card Required 

0  1
O           5.31149        -2.39275         0.37003
C           5.70248        -2.52220         1.53614
S           4.03175        -1.27413         2.12392
C           5.04864         0.04328         1.58218
C           6.02030        -0.22809         2.46547
C           7.39444        -0.26888         2.11980
C           8.28743        -0.70020         3.01866
C           9.68013        -0.83109         2.68953
C          10.57822        -1.16322         3.56579
C          11.52408        -1.51337         4.38969
C          12.56369        -2.46099         3.99577
C          12.45162        -3.53169         4.78161
C          11.23104        -4.35982         3.72591
C           9.71886        -3.72727         3.28062
S           7.83807        -3.42215         2.20457
H           5.21282         0.29388         0.50593
H           5.73588        -0.96311         3.28596
H           7.64011        -0.19151         1.06259
H           7.89879        -1.24538         3.89284
H           9.98801        -0.66384         1.66354
H          11.46834        -1.22810         5.43505
H          12.50060        -2.85069         2.96655
H          12.82324        -3.23486         5.87737
H          12.26524        -5.01931         3.67369
H          10.03096        -3.59210         4.40316

