%chk=OdC1CNNC2dCCdCCdC3CdC2CdCCdC3O1.chk
%NProcShared=20
# opt freq b3lyp/6-31g(2df,p)

Title Card Required 

0  1
O           2.25837         0.49559         0.90483
C           3.29421         0.67644         0.22856
C           3.13869         0.43653        -1.28947
N           4.37563        -0.12439        -1.73144
N           4.98834         1.04692        -2.11563
C           6.22431         1.29192        -1.61333
C           7.12915         0.20684        -1.74518
C           8.60063        -0.02408        -1.70498
C           9.46457         0.55606        -0.85285
C           8.90281         1.16869         0.32967
C           7.72236         1.76787         0.20804
C           7.64333         2.91222        -0.79801
C           6.38169         2.90039        -0.93187
C           6.00820         3.78039         0.53803
C           6.74351         3.83040         1.69901
C           6.70301         2.29965         2.23840
C           6.43539         1.39184         1.24684
O           4.74474         0.97225         0.80388
H           2.83517         1.40400        -1.73907
H           2.41386        -0.28007        -1.70428
H           4.80217        -0.58920        -0.90774
H           4.98213         1.13452        -3.13261
H           6.69807        -0.80639        -1.84520
H           9.00708        -0.80323        -2.36758
H          10.53777         0.39038        -0.89718
H           9.08371         0.64306         1.24496
H           8.27946         3.04114        -1.70803
H           5.15113         3.48989         1.17701
H           6.28671         4.68726         2.29312
H           7.79469         2.20416         2.46767

