%chk=OdC1CdNCC2CC1dCC1dNCdC12.chk
%NProcShared=20
# opt freq b3lyp/6-31g(2df,p)

Title Card Required 

0  1
O           1.27150        -0.17174        -0.00145
C           2.14231        -0.38221         0.83031
C           3.28599        -1.27713         0.53334
N           4.47734        -0.93920         0.87800
C           4.93100         0.38274         1.54403
C           4.00730         1.89358         1.64272
C           3.05220         1.80910         0.63750
C           2.53783         0.59739         1.85343
C           3.00693         0.57294         3.26423
C           3.90342         1.82951         4.16387
N           4.38481         2.97301         4.57128
C           4.27189         3.65643         3.37801
C           4.37145         2.47705         2.89867
H           2.99680        -2.20376        -0.01028
H           5.74586         0.69733         0.89667
H           5.38750         0.10455         2.51114
H           2.93309         2.32670         2.19764
H           3.94765         2.01609        -0.01207
H           2.40735         2.69707         0.53448
H           3.11287        -0.32000         3.91004
H           4.31361         4.60406         2.77971

