%chk=Odc1cnc2cqs1rdCCdCCdCCdCCdCNd2.chk
%NProcShared=20
# opt freq b3lyp/6-31g(2df,p)

Title Card Required 

0  1
O           0.91591         0.05868        -0.05851
C           2.08910        -0.09113        -0.05788
C           3.67356         0.18090        -0.04084
N           4.87946        -1.29500        -0.01809
C           5.50045        -3.48332         0.12910
C           4.33858        -1.79008        -0.06910
S           2.55891        -1.60257        -0.06500
C           4.94110        -2.99725        -0.02399
C           3.75497        -3.81255        -0.06938
C           4.44277        -4.79880        -0.23680
C           3.66223        -5.91759        -0.03716
C           4.46288        -6.82726        -0.27826
C           3.96707        -8.37173        -0.07198
C           5.67957        -8.37244         0.00225
C           4.76108        -9.49940         0.01315
C           5.68020        -7.87781         0.20954
N           5.71512        -5.53564         0.22925
H           2.82506         1.70079        -0.06066
H           6.40564        -2.27318        -0.04787
H           2.84016        -3.69806        -0.05046
H           6.23890        -4.55018        -0.24421
H           2.77822        -6.34631        -0.05244
H           6.21994        -6.70412        -0.22968
H           2.99688        -8.75922        -0.07119
H           6.65325        -9.47246        -0.00296
H           3.72415       -10.67585        -0.02170
H           5.37345        -9.65214        -0.09922

