%chk=OdC1CCdCCdC2CdCNdC1C2O.chk
%NProcShared=20
# opt freq b3lyp/6-31g(2df,p)

Title Card Required 

0  1
O           1.42207        -0.52399        -0.41052
C           2.60263        -0.19663        -0.22210
C           2.99820         0.99479         0.71876
C           3.13220         2.19817        -0.12922
C           4.21274         2.39090        -0.89489
C           5.44667         1.60394        -0.96093
C           5.70053         0.27984        -0.76848
C           6.26153        -0.35575        -1.96037
C           5.45385        -1.33507        -2.44118
N           4.03608        -1.36305        -2.11903
C           3.79656        -0.89847        -0.89620
C           4.96506        -0.84909         0.00506
O           5.49720        -2.20018        -0.02573
H           3.96502         0.88817         1.21431
H           2.34240         1.12223         1.58186
H           2.29549         2.89459        -0.15047
H           4.16069         3.21303        -1.61727
H           6.21640         2.17211        -1.48641
H           7.30967        -0.18801        -2.17646
H           5.99522        -2.22637        -2.79143
H           4.75219        -0.70087         1.05120
H           4.98340        -2.69692        -0.70732

