%chk=OdC1CdCCdCNdC2CdCNdCCdC2C1.chk
%NProcShared=20
# opt freq b3lyp/6-31g(2df,p)

Title Card Required 

0  1
O           2.56476        -0.08403         0.56274
C           3.60877        -0.04626        -0.16158
C           2.97246         0.01862        -1.49458
C           4.12171         0.04173        -2.00602
C           4.65585         0.13028        -3.22080
C           5.91919         0.11428        -3.08116
N           6.91019         0.16126        -3.84780
C           7.87206         0.12590        -2.96059
C           8.93226         0.20395        -4.47187
C          10.19441         0.22513        -4.93728
N          11.06521         0.16340        -3.93951
C          10.60767         0.09558        -2.68331
C           9.08600         0.03519        -1.44555
C           7.51003         0.03082        -1.04841
C           5.61514        -0.02644         0.11664
H           2.12728         0.07071        -2.13890
H           4.88344        -0.07962        -1.35886
H           4.18218         0.18206        -4.10907
H           6.16642         0.03163        -2.10356
H           8.37343         0.25536        -5.45220
H          10.57602         0.28855        -6.05321
H          11.66226         0.06636        -2.22407
H           9.97201        -0.01429        -0.79698
H           5.12391         0.80098         0.93774
H           5.15644        -0.90396         0.91816

