%chk=OdC1CdCCdCCdNCSSC2dCqS1rS2.chk
%NProcShared=20
# opt freq b3lyp/6-31g(2df,p)

Title Card Required 

0  1
O           4.35968         0.02001        -0.04133
C           5.27577        -0.66195         1.06238
C           3.78352        -0.87401         1.40558
C           5.18201        -0.86663         1.39363
C           4.98795        -1.70461         2.74986
C           6.16783        -1.92223         3.10206
C           7.02064        -2.44772         3.95255
N           8.24536        -2.32260         3.75005
C           8.61794        -3.01648         4.87250
S          10.21564        -3.05820         4.94161
S          11.98163        -3.07264         4.96344
C          10.88283        -2.08992         3.37344
C           9.70519        -1.46237         2.35781
S           7.78948        -0.75410         1.21153
S          11.83522        -1.41275         2.27749
H           2.84021        -1.23673         1.99263
H           5.92919        -0.01342         0.01276
H           4.17152        -2.06451         3.33235
H           6.95395        -1.61174         2.59947
H           6.52728        -2.91625         4.71082
H           8.76023        -4.04492         4.60740
H           8.76022        -2.31878         5.67395

