%chk=OdC1NdCdCdc2ncccocq[nH]2rdN1.chk
%NProcShared=20
# opt freq b3lyp/6-31g(2df,p)

Title Card Required 

0  1
O           4.24982        -0.96991        -0.10760
C           4.85200        -0.30570        -0.96784
N           4.08779         0.84202        -1.34996
C           4.75276         1.71509        -1.09813
C           5.90324         1.99973        -0.74372
C           7.17457         1.84781        -0.67392
N           7.70063         2.50905        -1.76164
C           8.98329         2.43523        -1.69047
C           9.87817         2.64053        -2.82652
C          10.35711         1.38248        -2.70322
O           9.10284         0.16613        -2.38208
C           7.67094        -0.11575        -1.47855
N           7.76961         0.60912        -0.33681
N           6.33734        -0.61888        -1.72174
H           9.47169         1.85340        -0.85135
H           9.28324         2.81824        -3.72036
H          11.36402         1.34244        -2.16320
H           7.48570         0.03016         0.45018

