%chk=OdC1CqOrdCCdc2c1cc1cqc2C2dCCdC2rCdCCd1.chk
%NProcShared=20
# opt freq b3lyp/6-31g(2df,p)

Title Card Required 

0  1
O           0.76831        -0.15710         0.08578
C           1.99573        -0.12290         0.08235
C           2.76063        -1.43430         0.07467
O           2.10707        -2.64795         0.08509
C           4.08206        -1.42948         0.04919
C           4.78930        -0.20888         0.04647
C           4.28181         1.02538         0.08268
C           2.81193         1.16724         0.06725
C           2.29229         2.42590         0.01695
C           3.27187         3.53072        -0.10217
C           4.61666         3.37837         0.43772
C           5.20301         2.18895         0.26134
C           6.69136         1.98866         0.17621
C           7.53434         0.99043         0.07942
C           8.63259         1.87355         0.08514
C           7.75857         2.92577         0.10264
C           5.17662         4.71850         0.72456
C           4.72175         5.42829        -0.30931
C           3.33092         4.82897        -0.50228
H           1.16051        -2.42320         0.07512
H           4.68887        -2.33204         0.06492
H           5.82343        -0.43734         0.08144
H           1.21419         2.57150         0.02885
H           7.56392        -0.10603         0.04885
H           9.66206         1.59711         0.05684
H           7.82178         3.99785         0.08506
H           4.71127         5.27264         1.55675
H           5.63916         5.52009        -0.91953
H           2.45025         5.45848        -0.44717

