%chk=OdC1CdCC2dCdC3CdCNdC3CdC12.chk
%NProcShared=20
# opt freq b3lyp/6-31g(2df,p)

Title Card Required 

0  1
O           2.38496         1.50690         1.24843
C           3.22290         1.90821         0.45294
C           3.04828         1.26175        -0.86233
C           4.33537         0.92536        -0.85140
C           4.93377         2.22726        -0.73399
C           5.59225         2.53904        -1.98183
C           6.14751         3.77493        -2.28187
C           7.25476         3.90203        -3.28074
C           8.11866         3.35337        -2.42718
N           7.78113         3.75555        -1.05537
C           6.55675         4.20169        -1.08025
C           5.48557         4.04109         0.05476
C           4.42720         3.08537         0.26373
H           2.54629         2.10462        -1.36439
H           4.74551         0.14216        -0.20226
H           7.69209         4.86244        -3.58124
H           8.10316         2.28235        -2.76912
H           5.18529         5.06283         0.42035

