%chk=OdC1CdCC2CdCCdC2NdCN1.chk
%NProcShared=20
# opt freq b3lyp/6-31g(2df,p)

Title Card Required 

0  1
O           2.05199        -0.77671        -0.32668
C           3.02889        -0.61460         0.42148
C           2.96079         0.37140         1.47566
C           4.16442         0.92850         1.49761
C           4.88071         0.91086         2.77400
C           5.44929         2.26732         2.91664
C           6.78503         2.19251         2.86388
C           7.18121         0.79914         2.74915
C           6.08235         0.02770         2.61269
N           6.08606        -1.26118         2.15708
C           5.43837        -1.65977         1.09307
N           4.27505        -1.30645         0.30370
H           2.26157         0.32789         2.29522
H           4.83241         0.90215         0.62414
H           4.29717         0.56697         3.63444
H           4.81420         3.13645         2.84144
H           7.43038         3.04778         2.74651
H           8.20875         0.48432         2.63365
H           5.96177        -2.49223         0.59020
H           4.37256        -1.56903        -0.66790

