%chk=Odc1ccc2c3cqc1rCqdCCdCCd2rCd3.chk
%NProcShared=20
# opt freq b3lyp/6-31g(2df,p)

Title Card Required 

0  1
O           1.58594         0.08131        -0.14376
C           2.72489        -0.14206         0.26803
C           3.15852        -0.77587         1.44711
C           4.54037        -0.85504         1.63117
C           5.60333        -1.59846         2.97100
C           6.67520        -1.21257         2.25228
C           6.16440        -0.71387         1.26113
C           4.46517        -0.09299         0.09734
C           7.93096        -1.18235         2.18190
C           8.70608        -1.93136         3.57373
C          10.22818        -2.04341         3.78734
C           8.97086        -2.25772         4.18598
C           6.86687        -2.11963         3.92755
C           7.67067        -0.60377         1.12400
H           2.33243        -1.07409         1.99243
H           5.67278        -0.09944         0.30660
H           4.05071         0.53167        -0.97985
H           7.97452        -2.69142         4.98023
H          11.25465        -1.84430         3.41706
H           9.88991        -2.78317         5.15431
H           5.74468        -2.31111         4.28024
H           7.60996        -0.09205         0.17932

