%chk=OdC1CN2C[C]c3ncccc3CdC3NN[C]3CNC12.chk
%NProcShared=20
# opt freq b3lyp/6-31g(2df,p)

Title Card Required 

0  2
O           0.90134        -0.10210         0.44645
C           2.05668         0.23418         0.50331
C           2.72961         1.41592        -0.12852
N           3.05189         0.12359        -1.06390
C           3.40699         0.00707        -2.44671
C           4.45422        -0.91053        -2.96949
C           5.33187        -1.07132        -4.12425
N           5.17003        -2.23328        -4.79156
C           5.01001        -2.12769        -6.12941
C           4.78084        -0.91903        -6.76354
C           5.13073         0.24653        -6.07521
C           5.61123         0.15176        -4.75880
C           6.03638         1.32106        -3.93977
C           6.64662         1.27843        -2.72405
N           7.22852         0.37319        -1.95645
N           7.34706         1.29474        -0.87360
C           6.40905         2.12657        -1.51121
C           5.03057         1.95928        -0.92355
N           4.99689         0.46638        -0.12890
C           3.72530        -0.32171         0.11318
H           3.37125         1.70753         0.77570
H           2.34127         2.32834        -0.52787
H           3.63313         0.96031        -2.91732
H           2.47843        -0.29201        -2.92735
H           5.04043        -3.05799        -6.69053
H           4.37753        -0.89681        -7.77278
H           5.00296         1.20258        -6.57945
H           5.66540         2.27850        -4.29808
H           6.72283        -0.48387        -1.71499
H           6.82876         0.97631        -0.02357
H           4.35889         2.15134        -1.77552
H           4.84495         2.75963        -0.20880
H           5.30586        -0.12908        -0.90073
H           3.85808        -1.34183         0.50352

