%chk=OdC1CdCCdNc2ccncc2CdC1.chk
%NProcShared=20
# opt freq b3lyp/6-31g(2df,p)

Title Card Required 

0  1
O           2.93032         0.82524         0.32595
C           3.73595        -0.00231         0.86610
C           3.20989        -1.34073         0.92886
C           4.24052        -2.00622         0.39510
C           4.90153        -2.65540         1.47328
N           6.12651        -2.79177         1.12115
C           6.84715        -2.97105         2.23494
C           6.87075        -4.34497         2.59749
C           7.68036        -4.79870         3.56233
N           8.58819        -3.91713         3.97788
C           8.50227        -2.49603         3.51663
C           7.42746        -1.84061         2.75552
C           6.69241        -0.35632         1.95748
C           5.44776         0.21773         1.29961
H           2.46919        -1.64672         1.63642
H           4.98437        -1.49009        -0.23759
H           4.50474        -2.70945         2.51894
H           6.19731        -4.98614         2.04739
H           7.59961        -5.84196         3.88609
H           9.51015        -2.15104         3.81107
H           7.56094         0.32064         1.90899
H           5.50764         1.10079         0.59030

