%chk=OdC1CdCCdCCdCdCC2dCC2dC1.chk
%NProcShared=20
# opt freq b3lyp/6-31g(2df,p)

Title Card Required 

0  1
O           3.31075        -0.38883        -0.62110
C           4.26029         0.51857        -0.54225
C           3.44207         1.49414         0.28331
C           4.58894         1.67380         0.86604
C           5.16312         2.90360         0.95249
C           6.46711         2.87881         1.03997
C           7.19372         4.03651         1.29787
C           8.46850         4.02121         1.32104
C           9.51857         3.46142         0.89390
C           8.92462         2.24740        -0.05976
C           9.56483         1.21204        -0.46831
C           7.80913         1.10842        -0.48072
C           6.17300         0.47072        -0.64219
H           2.52965         2.06776         0.34466
H           5.11120         0.75291         1.11255
H           4.54681         3.75039         1.02422
H           6.91911         1.90624         1.04620
H           6.67113         4.92464         1.45491
H          10.44399         3.91779         1.43856
H          10.65205         1.83745        -0.22087
H           5.85650        -0.62342        -0.75173

