%chk=Odc1cccccccccqdSrn1S.chk
%NProcShared=20
# opt freq b3lyp/6-31g(2df,p)

Title Card Required 

0  1
O           2.82538         0.15019         0.15785
C           4.23934         0.56906         0.69994
C           3.04491         1.01263         1.27340
C           4.36585         1.01328         1.27425
C           4.89691         1.76689         2.24904
C           6.23308         1.82975         2.33028
C           6.73137         2.59184         3.31614
C           6.94719         1.81135         2.30608
C           8.14837         2.59723         3.32214
C           9.88098         2.29036         2.92996
C           8.35768         1.70694         2.16824
S          10.01249         2.77551         3.55396
N           6.38628         0.80541         1.00641
S           5.13579        -0.55297        -0.75186
H           2.30898         1.45806         1.84958
H           5.45399         0.33487         0.39662
H           4.34921         2.26189         2.88933
H           7.47005         1.05686         1.33056
H           6.37949         3.14179         4.02741
H           8.44758         0.98766         1.24141
H           8.45449         3.49589         4.48656
H          11.40132         2.13497         2.72361
H           3.69812        -1.30756        -1.72776

