%chk=OdC1CCdNC2dCCdC3CdNOOCC2C3CCCC1.chk
%NProcShared=20
# opt freq b3lyp/6-31g(2df,p)

Title Card Required 

0  1
O           3.45119         0.59482        -0.17050
C           4.81955         0.53487         0.41452
C           3.71630        -0.95432         1.01150
C           5.27422        -1.37192         0.87729
N           6.50269        -2.15323         1.03441
C           8.27694        -2.46756         0.76925
C           7.93494        -2.15674         2.08287
C           9.17872        -1.72390         2.20907
C           9.98730        -2.62998         2.72533
C           9.61214        -3.85433         3.38894
N          10.25747        -4.81804         3.94098
O          11.62847        -4.85118         3.71947
O          11.92150        -5.50109         2.44276
C          11.14047        -4.86676         1.29175
C          10.26052        -3.24308         0.98329
C          11.26069        -2.57856         2.21868
C          11.49026        -1.24478         1.88786
C          11.36839        -0.28674         0.86922
C           9.36222         0.34364         0.45555
C           6.95394         0.52226         0.16872
H           2.91336        -1.81172         0.48549
H           2.90932        -0.77866         1.88883
H           5.64111        -0.78331         0.12109
H           7.29191        -2.94313         2.54803
H           9.54526        -1.19079         1.29592
H           8.54771        -3.98752         3.35750
H          10.18110        -5.11929         1.54523
H          11.46851        -5.46143         0.42242
H          11.63016        -3.21086         0.66167
H          11.94137        -2.81484         3.08916
H          11.40310        -0.46645         2.61392
H          11.32996        -1.42988         0.77607
H          12.71792        -1.02126         0.57791
H          12.67454        -0.42492         1.71152
H          10.57168         0.58405        -0.17558
H          10.44463         1.05961         0.92399
H           6.08695         0.64700        -0.93552
H           5.99872         1.51343        -0.01011

