%chk=OdC1NdCCdCC2dCCdCC2dCCN1.chk
%NProcShared=20
# opt freq b3lyp/6-31g(2df,p)

Title Card Required 

0  1
O           3.05245        -0.92349        -0.21292
C           3.81451        -0.34518        -1.05021
N           3.42957         0.81668        -1.54116
C           4.28856         1.62471        -1.00413
C           4.93589         2.37792        -2.00666
C           6.24768         2.35203        -1.78530
C           6.98075         2.71174        -2.89540
C           6.92452         3.92527        -3.45018
C           7.84042         3.94847        -4.54408
C           8.42669         2.72138        -4.65983
C           7.73923         1.79876        -3.66367
C           7.61725         0.47405        -3.28531
C           6.69274        -0.51000        -2.12873
N           5.18657        -0.69387        -1.24487
H           4.89616         1.36656        -0.10000
H           4.48848         2.50783        -2.98892
H           6.79450         1.82650        -1.00040
H           6.26856         4.69297        -3.07474
H           7.98159         4.87503        -5.09127
H           9.20328         2.58141        -5.40321
H           8.41589        -0.12874        -3.75576
H           7.41692        -0.62545        -1.30280
H           6.67276        -1.45904        -2.67012
H           5.33163        -1.25376        -0.40803

