%chk=OdC1CdCCdCNdCCdCCdCNCNdNN1.chk
%NProcShared=20
# opt freq b3lyp/6-31g(2df,p)

Title Card Required 

0  1
O           3.62852        -0.35190         0.56362
C           5.35156        -0.78855         1.10811
C           3.27530        -0.89232         1.26150
C           4.73375        -1.00334         1.40759
C           5.21268        -1.85661         2.51162
C           6.67126        -1.96476         2.67574
N           6.98571        -2.66418         3.55242
C           8.13405        -2.49960         3.34056
C           8.90172        -3.24429         4.30296
C          10.13560        -3.32451         4.40680
C          10.97243        -4.07617         5.37787
C          12.31366        -4.11519         5.43378
N          13.21254        -4.72150         6.26356
C          13.45494        -3.91931         5.15886
N          11.58698        -2.91284         3.86941
N           9.70186        -2.14206         2.86005
N           7.40488        -1.35007         1.80530
H           2.43541        -1.36347         1.87043
H           4.86280         0.04529         0.04983
H           4.42749        -2.21136         2.96665
H           8.43639        -1.16247         1.65801
H           8.66589        -1.78733         2.41638
H           8.58704        -3.80154         5.02348
H          10.86897        -2.35349         3.15356
H          10.72196        -4.64990         6.12111
H          13.02260        -3.18978         4.23766
H          12.92758        -5.33071         6.96970
H          14.89281        -3.68903         6.10840
H          14.89579        -4.88469         5.18619
H           6.58433        -0.62579         0.91654

