%chk=OdC1CdC2CdCCdC2NdC1C1dCS1.chk
%NProcShared=20
# opt freq b3lyp/6-31g(2df,p)

Title Card Required 

0  1
O           1.02922        -0.14200        -0.05827
C           2.25258        -0.15177        -0.05958
C           2.99354        -1.41694        -0.05951
C           4.31624        -1.29386        -0.06715
C           5.30194        -2.34577        -0.07203
C           6.50204        -1.73530        -0.07803
C           6.31672        -0.28868        -0.07726
C           5.00474        -0.01948        -0.07166
N           4.36607         1.17896        -0.06808
C           3.06471         1.14736        -0.06210
C           2.23752         2.31707        -0.05668
C           1.05987         2.86787        -0.05015
S           2.35204         3.98879        -0.05425
H           2.44266        -2.34423        -0.05471
H           5.10465        -3.40494        -0.07186
H           7.46597        -2.21951        -0.08320
H           7.11623         0.43462        -0.08022
H           0.01751         2.64266        -0.04519

