%chk=Odc1ccccccccsc1d[SH]NNS.chk
%NProcShared=20
# opt freq b3lyp/6-31g(2df,p)

Title Card Required 

0  1
O           2.61255        -0.07172         0.18870
C           3.71056        -0.77705         0.22996
C           3.09245        -1.64490        -0.62791
C           4.32918        -1.29788        -0.87772
C           5.01094        -2.42366        -1.19040
C           6.23176        -1.99288        -1.41992
C           6.98376        -2.94905        -2.07619
C           8.26045        -2.44651        -2.01723
C           8.88513        -3.76191        -1.98098
C           9.32430        -3.60161        -0.69221
S           7.60336        -2.61282         0.55607
C           5.64124        -1.02002         0.79723
S           4.44376         1.01652         1.34831
N           4.01631         3.07671         1.45383
N           2.81550         4.39352         2.08005
S           3.78338         5.87116         2.63910
H           2.26429        -2.22118        -0.90790
H           5.07886        -0.13361        -0.63888
H           4.50649        -3.34091        -1.41649
H           6.99273        -1.11619        -0.77034
H           6.68529        -4.11118        -1.87735
H           9.16541        -1.93037        -1.15326
H           8.79092        -4.89017        -2.23172
H          10.78805        -3.62100        -1.25716
H           2.84248         1.16375         1.40449
H           4.17010         3.73372         0.69150
H           2.15076         4.36233         2.89470
H           4.54868         6.35618         1.62629

