%chk=OdC1CdCCCC[SH]dNCdCCSS1.chk
%NProcShared=20
# opt freq b3lyp/6-31g(2df,p)

Title Card Required 

0  1
O           4.40704         0.19095         0.29269
C           5.30273         1.17274        -0.39721
C           3.88773         0.82754        -1.35897
C           5.15582         0.54070        -1.54941
C           5.10091         1.62273        -2.68730
C           6.48572         1.67295        -2.65688
C           7.19984         2.28581        -3.68382
S           8.67204         1.41880        -3.86183
N           9.45575         2.56521        -4.32817
C          10.69835         2.20600        -4.19078
C          11.57886         2.99306        -4.71678
C          12.11224         2.69436        -3.29529
S          10.19441         1.91888        -1.58860
S           7.85145         0.91157        -0.80448
H           2.98220         1.32725        -1.95797
H           5.91053        -0.29745        -0.47900
H           4.75034         2.66454        -2.41677
H           4.74456         1.03597        -3.51214
H           6.68069         0.52118        -2.78007
H           6.64010         2.38608        -1.72736
H           7.22414         3.33683        -3.38394
H           6.93439         1.72691        -4.55646
H           9.29357         0.64595        -2.93493
H          11.26326         1.23588        -3.37737
H          11.60983         3.69805        -5.61397
H          12.98196         1.98989        -4.14637
H          13.15005         3.37662        -3.42643

