%chk=Odc1[c]cccccccc2ccncccnn12.chk
%NProcShared=20
# opt freq b3lyp/6-31g(2df,p)

Title Card Required 

0  2
O           6.39639        -0.04074         2.51922
C           8.16405        -0.06399         3.70993
C           5.94674        -0.05012         2.81708
C           5.07258        -0.02960         1.56116
C           5.74979        -0.06329         3.63880
C           7.61134        -0.04397         2.48325
C           7.73795        -0.08004         4.91110
C           9.44730        -0.06557         3.92941
C           8.83473        -0.08664         5.26241
C          10.63311        -0.08408         5.09543
C          10.73932        -0.10935         6.64557
C          11.64736        -0.09830         5.93288
C          13.07597        -0.12667         7.78672
N          13.98169        -0.14273         8.82178
C          15.03064        -0.15165         9.29146
C          16.60711        -0.14208         8.73549
C          14.80681        -0.11978         7.37027
N          12.91199        -0.10342         6.27673
N          10.41838        -0.08654         5.06422
H           4.98237        -0.00922         0.29625
H           4.51884        -0.06308         3.72057
H           7.06915        -0.02621         1.36880
H           6.77436        -0.08188         4.92351
H           9.29343        -0.04940         2.87539
H           8.83443        -0.10241         6.21871
H          11.49563        -0.06916         4.11881
H          13.33591        -0.08585         5.14820
H          12.96382        -0.14220         8.75301
H          15.31476        -0.16498        10.20015
H          17.70424        -0.13120         8.05257
H          16.20927        -0.14412         8.88886

