%chk=OdC1CdCCdCdC2NC2dC2CdCCdC12.chk
%NProcShared=20
# opt freq b3lyp/6-31g(2df,p)

Title Card Required 

0  1
O           5.28604         2.12930        -1.37083
C           5.80471         1.23477        -2.09361
C           4.46747         0.06059        -1.92927
C           4.78332        -1.02242        -1.23212
C           5.38945        -1.72013        -2.36401
C           6.65667        -1.70922        -2.38839
C           7.84992        -1.67965        -1.87236
N           9.04425        -2.14306        -2.36278
C           8.75927        -0.90190        -2.41585
C           8.89521         0.41217        -2.58210
C          10.30553         0.70963        -2.94374
C          10.25097         1.95142        -3.37846
C           8.65953         2.33494        -3.25273
C           7.67172         1.42724        -2.64325
H           3.34375        -0.08368        -2.18191
H           5.33856        -0.74354        -0.32742
H           4.83961        -1.58962        -3.31268
H           9.66851        -2.34156        -1.58027
H          11.23960         0.11065        -2.93624
H          11.22080         2.40272        -3.73760
H           8.72583         3.29698        -3.75476

