%chk=OdC[C]CCCdCC1CdCdCC1.chk
%NProcShared=20
# opt freq b3lyp/6-31g(2df,p)

Title Card Required 

0  1
O           0.92046        -0.10132        -0.08956
C           2.11743         0.08370         0.08527
C           3.15376        -0.63097        -0.58729
C           4.60187        -0.69178        -0.63743
C           5.31200        -1.67280        -1.54137
C           6.81334        -1.49365        -1.33355
C           7.72258        -2.24373        -1.97390
C           9.21262        -2.01089        -2.06672
C           9.78991        -2.86704        -3.20784
C          11.04005        -3.08444        -2.95978
C          11.46869        -2.78226        -1.77861
C          10.25181        -2.35511        -0.92962
H           2.54936         0.82032         0.78115
H           4.91534        -0.87472         0.39618
H           4.92110         0.32580        -0.89245
H           5.05161        -1.47417        -2.58970
H           5.01617        -2.70175        -1.30920
H           7.14755        -0.68404        -0.68596
H           7.31661        -2.98621        -2.65904
H           9.37129        -0.95080        -2.31593
H           9.19915        -3.68676        -3.60565
H          12.52275        -2.57332        -1.63383
H          10.44481        -1.48858        -0.28595
H           9.90509        -3.18185        -0.29767

