%chk=OdCC1dNCdCCdCc2c3ocqc2dC1rdC3.chk
%NProcShared=20
# opt freq b3lyp/6-31g(2df,p)

Title Card Required 

0  1
O           1.52816        -0.62106        -0.01706
C           2.74341        -0.93105        -0.10926
C           3.92048        -2.57875        -0.43021
N           4.61553        -1.48866        -0.08153
C           5.61641        -2.09270         0.40529
C           6.84261        -2.08130         0.00359
C           7.52023        -3.18264         0.48101
C           8.64184        -3.46321        -0.12868
C           8.52597        -4.72970        -0.74775
C           9.76572        -5.49207        -0.28923
O           9.44257        -6.70482        -0.05913
C           8.43328        -5.98868         0.59489
C           6.78498        -5.26452        -0.37097
C           5.27351        -4.13613        -0.49958
C           9.84575        -5.48453         1.22010
H           3.18142         0.25943         0.03191
H           5.27565        -2.93191         0.99430
H           7.29836        -1.18167        -0.19354
H           6.86122        -3.94648         0.92978
H           9.40667        -2.75848        -0.23425
H           4.04339        -4.39206        -0.48697
H          10.89175        -4.96203         1.74071

