%chk=OdCC1CdCCdCCdc2ocnc2dC1.chk
%NProcShared=20
# opt freq b3lyp/6-31g(2df,p)

Title Card Required 

0  1
O           1.64499         0.38328        -0.47746
C           2.88728         0.57928        -0.40725
C           4.27274         1.33848        -1.66067
C           4.88931         0.22236        -0.95194
C           5.69374        -0.03417        -1.93283
C           6.97752         0.13131        -1.43309
C           7.78374         0.30693        -2.43016
C           9.00488         0.71363        -1.98760
C           9.17330         1.74324        -2.70194
O          10.58529         1.84405        -2.92682
C          10.37294         2.51672        -4.03824
N           8.95595         2.92086        -4.20887
C           7.67198         2.60104        -3.01665
C           5.87010         2.29476        -2.51910
H           3.18348        -0.12455         0.46981
H           3.49352         0.67628        -2.40926
H           5.03977         0.04523         0.10449
H           5.37312         0.36483        -2.95955
H           7.33932         0.27769        -0.42779
H           7.34362         0.59872        -3.42821
H           9.80843         0.44692        -1.35789
H          11.74946         2.45849        -4.48539
H           4.96071         2.99363        -2.39827

