%chk=OdCC1dCCdCCdC2NdCCdCCdCCdC2CdC1.chk
%NProcShared=20
# opt freq b3lyp/6-31g(2df,p)

Title Card Required 

0  1
O           1.17653        -0.03630        -0.00519
C           2.49035        -0.13497        -0.03003
C           3.97706        -1.64624        -0.41043
C           5.19786        -1.50443        -0.37473
C           5.54667        -3.55521        -0.89464
C           6.87232        -3.37545        -0.84404
C           7.49749        -4.36701        -1.09549
C           8.90332        -4.09574        -1.02686
N           9.34331        -5.28699        -1.32699
C          10.64975        -5.71368        -1.43444
C          11.14116        -6.91959        -1.73770
C          11.23342        -5.71725        -1.43505
C          12.64478        -7.15643        -1.79230
C          14.24288        -6.88232        -1.76142
C          12.53832        -5.60189        -1.40209
C          10.69826        -4.10943        -1.03212
C           8.44451        -2.81146        -0.70396
C           6.22329        -2.08631        -0.52201
H           2.92079         0.87259         0.22360
H           5.06962        -0.41869        -0.10145
H           4.63416        -3.67804        -0.91975
H           7.34106        -1.62442        -0.40486
H           6.77649        -4.95831        -1.24416
H          11.92913        -4.45839        -1.11887
H          10.79063        -7.66836        -1.92666
H          13.01154        -4.63084        -1.16051
H          13.05277        -8.45363        -2.12447
H          15.52546        -6.64492        -1.66160
H          13.93973        -6.80170        -1.69020
H           8.77711        -1.35929        -0.33827
H           4.36564        -2.53008        -0.63300

