%chk=OdCC1CdCNdc2ccccc2dNNdC1.chk
%NProcShared=20
# opt freq b3lyp/6-31g(2df,p)

Title Card Required 

0  1
O           1.06326         0.48855         0.09630
C           2.28795         0.37768         0.07981
C           3.28028         1.34846        -0.59191
C           4.60083         0.69730        -0.34189
C           5.59969         1.40025        -0.87296
N           6.88821         1.34612        -0.58261
C           7.49678         2.48749        -0.79011
C           8.98300         2.37967        -0.72255
C           9.78330         3.42416        -0.92392
C           9.25170         4.65563        -1.43324
C           7.94033         4.83380        -1.71074
C           6.83206         3.84220        -1.21524
N           5.54325         4.22138        -1.21910
N           4.32657         3.85250        -0.36890
C           3.44367         2.86047        -0.15281
H           2.71117        -0.58464         0.44839
H           2.97941         1.32800        -1.64386
H           4.79707        -0.15671         0.28677
H           5.27001         2.14928        -1.57156
H           9.38849         1.39245        -0.52640
H          10.86379         3.31160        -0.81180
H          10.01305         5.41122        -1.65054
H           7.64459         5.75463        -2.20378
H           2.60155         3.18360         0.50568

