%chk=OdCC1dCNdCCdCCdC2SCdCNdC2N1.chk
%NProcShared=20
# opt freq b3lyp/6-31g(2df,p)

Title Card Required 

0  1
O           1.40066        -0.23130        -0.26725
C           2.78432        -0.35577        -0.62417
C           4.28278        -0.87378        -2.07596
C           4.67414        -0.48244        -0.89740
N           5.70189        -1.02014        -1.30358
C           6.83730        -1.47338        -1.60632
C           6.93419        -2.65914        -3.19685
C           8.17699        -3.01560        -3.41542
C           8.71541        -2.71197        -4.69414
C           9.71273        -2.11766        -4.19612
S          10.82232        -3.12673        -5.73613
C          12.39957        -2.94214        -5.31463
C          11.84770        -2.14121        -4.04041
N          10.01981        -1.46320        -3.37371
C           8.22071        -1.01802        -3.53206
N           6.01089        -0.91349        -3.18140
H           2.93037         0.25863         0.63198
H           4.80453        -0.14424         0.04500
H           7.42060        -0.70093        -1.11319
H           6.43306        -2.43325        -4.28634
H           8.66589        -2.28664        -2.35214
H           8.68241        -3.17608        -5.59195
H          13.19512        -3.50062        -6.18813
H          13.40427        -2.32100        -4.16928
H           4.79966        -1.65478        -3.09597

