%chk=OdCc1cccscc2[nH]ccncn-2cc1.chk
%NProcShared=20
# opt freq b3lyp/6-31g(2df,p)

Title Card Required 

0  1
O           1.86660        -0.42396        -0.66532
C           3.16198        -0.29356        -0.79972
C           4.76427        -0.78192        -2.00133
C           4.85421        -1.26409        -0.73614
C           5.42965        -2.54392        -0.98742
C           6.78304        -2.60891        -1.04721
S           7.21726        -4.00263        -2.40582
C           9.00479        -3.84146        -2.30941
C           9.48728        -4.01723        -3.58455
N           9.77527        -5.08880        -4.52117
C          10.32119        -6.32690        -4.12868
C          11.40877        -6.41513        -3.36309
N          12.10634        -5.21536        -3.22919
C          11.55773        -3.77912        -3.29697
N           9.95373        -2.74208        -3.63026
C           8.37026        -1.72718        -3.17465
C           6.48444        -1.27786        -2.90489
H           3.23441         0.32947         0.24674
H           5.06856        -0.35165        -0.12175
H           4.87958        -3.09545        -1.86579
H           7.24042        -1.49920        -1.00739
H           9.42205        -2.78829        -1.71191
H           9.39466        -5.00416        -5.47818
H           9.76238        -7.24773        -4.25822
H          11.64275        -7.41774        -2.85970
H          12.89331        -3.60518        -3.59712
H           9.37628        -1.24347        -3.00745
H           5.33850        -1.80972        -3.20612

