%chk=OdCCSCC1dCCdCSC2dCC1d[SH]2.chk
%NProcShared=20
# opt freq b3lyp/6-31g(2df,p)

Title Card Required 

0  1
O           1.23648        -0.07346         0.00139
C           2.48602        -0.08345        -0.02181
C           3.37000        -0.65953        -1.29095
S           5.65077        -0.67279        -1.33745
C           6.71452        -1.47308        -3.28283
C           8.60605        -1.88187        -4.10598
C           8.67102        -1.37848        -2.90222
C           9.76544        -1.01959        -2.13726
C          10.86684        -1.34419        -2.68122
S          12.46059        -1.44561        -2.69885
C          12.11784        -2.13038        -4.21255
C          12.49988        -2.12173        -5.32841
C          10.45155        -1.94335        -5.14563
S          11.27225        -3.04179        -6.04801
H           2.97934         0.32040         0.86699
H           2.96354        -0.02891        -2.09661
H           2.96517        -1.68343        -1.34323
H           6.08992        -0.67304        -3.65987
H           6.12721        -2.36736        -2.88262
H           8.09439        -1.96047        -3.66013
H           9.92629        -0.60231        -1.19998
H          10.44073        -1.88139        -3.42024
H          13.78437        -2.23561        -4.96451
H          12.28812        -2.31935        -7.05822

