%chk=OdCc1ccc2cccccnscc1-2.chk
%NProcShared=20
# opt freq b3lyp/6-31g(2df,p)

Title Card Required 

0  1
O           1.33065        -0.02955         0.18093
C           2.53459         0.15097         0.40373
C           3.47265        -0.95508         0.72385
C           3.09800        -1.96227        -0.12988
C           3.93637        -3.07146         0.01057
C           4.87239        -2.80950         0.92795
C           5.73050        -3.91054         1.12778
C           6.58626        -3.56435         1.98065
C           7.65575        -4.19836         2.60552
C           8.11394        -3.30315         3.39461
C           9.02698        -2.95980         4.37956
N           8.79062        -1.73610         4.79354
S           7.29003        -0.53389         4.12757
C           5.70299        -0.63644         2.71314
C           4.84129        -1.33003         1.63772
H           2.97722         1.11822         0.16118
H           2.29501        -2.06153        -0.87589
H           3.81101        -4.00308        -0.54437
H           5.72243        -4.89115         0.68308
H           6.43453        -2.54574         2.28309
H           7.98589        -5.18808         2.47989
H           7.63973        -2.37692         3.30170
H           9.74769        -3.81789         4.57781
H           5.39468         0.38480         2.93645

