%chk=OdCCCC1dCdC[CH]C1dO.chk
%NProcShared=20
# opt freq b3lyp/6-31g(2df,p)

Title Card Required 

0  2
O           0.97879         0.11938         0.01343
C           2.20075         0.08878         0.00212
C           3.06056         1.07735        -0.75564
C           4.54321         0.65973        -0.64250
C           5.49173         1.41341        -1.55526
C           6.70047         1.15350        -2.00124
C           7.74817         1.87402        -1.66907
C           7.21353         2.64817        -0.53597
C           5.74185         2.76031        -0.95818
O           5.09645         3.72534        -1.25496
H           2.74113        -0.67881         0.58486
H           2.86741         2.06998        -0.32276
H           2.73433         1.08554        -1.79913
H           4.64353        -0.41360        -0.82105
H           4.82848         0.81964         0.41311
H           8.34220         2.54726        -2.29815
H           7.47006         1.98709         0.31188

