%chk=OdCc1cnn2c3cqcccccc12rCdCCd3.chk
%NProcShared=20
# opt freq b3lyp/6-31g(2df,p)

Title Card Required 

0  1
O           0.72201        -0.19427         0.03533
C           1.92712        -0.25681         0.22315
C           2.63908         0.63464         1.08748
C           2.54993         0.94750         2.43551
N           3.52187         1.77094         2.85547
N           4.23753         2.11941         1.70206
C           5.47712         2.77109         1.63945
C           6.58809         2.93180         0.83674
C           6.63790         2.31785        -0.45473
C           5.91804         1.10104        -0.76444
C           5.23374         0.75903        -1.88182
C           3.76978         0.88660        -1.74718
C           3.50277         1.93316        -0.90929
C           3.40117         1.64409         0.55434
C           7.72997         4.10615         1.83077
C           7.63884         3.99218         0.59371
C           6.50567         3.45289         2.09031
H           2.58392        -0.89675        -0.40030
H           1.77128         0.59068         3.09944
H           7.20509         2.73611        -1.27423
H           5.39222         0.99032         0.15100
H           5.52613         1.14504        -2.83932
H           3.10377         0.08017        -2.09912
H           4.21409         2.73000        -1.16358
H           8.31956         4.54789         2.60293
H           8.64445         4.22613         0.23589
H           6.51235         3.67290         3.22085

