%chk=OdCNCdCNNdCqOrCNdO.chk
%NProcShared=20
# opt freq b3lyp/6-31g(2df,p)

Title Card Required 

0  1
O           1.01706        -0.04197        -0.12383
C           2.24366        -0.03466        -0.11600
N           3.01158        -0.81098        -0.94750
C           4.38502        -0.82724        -0.96493
C           5.12141        -1.59406        -1.78625
N           6.50257        -1.64173        -1.83731
N           7.20033        -2.44216        -2.69463
C           8.50317        -2.44264        -2.69514
O           9.25209        -1.67700        -1.87508
C           9.29854        -3.32716        -3.64254
N          10.77193        -3.14636        -3.44888
O          11.43176        -3.86009        -4.21335
H           2.82131         0.60588         0.57006
H           2.48263        -1.40183        -1.58036
H           4.87048        -0.16395        -0.25449
H           4.65360        -2.26450        -2.50434
H           6.94921        -1.02164        -1.17314
H           8.72137        -1.13139        -1.29069
H           9.06727        -3.06478        -4.67881
H           9.06727        -4.37899        -3.45181

