%chk=OdCOC1[SH]dCCdC2CdCCdC21.chk
%NProcShared=20
# opt freq b3lyp/6-31g(2df,p)

Title Card Required 

0  1
O           0.69909         0.08715         0.32772
C           1.91192        -0.02095         0.27962
O           2.73361         0.30754         1.29074
C           4.19195         0.27332         1.31212
S           4.98030        -0.44169        -0.15274
C           5.75975         0.96655        -0.88834
C           6.04437         2.22293        -0.22689
C           5.56923         2.46164         0.98887
C           5.86738         3.65203         1.74626
C           5.26889         3.50537         2.93846
C           4.56184         2.22711         2.95946
C           4.71810         1.59629         1.77424
H           2.37911        -0.41757        -0.62100
H           4.44935        -0.44634         2.10208
H           4.02846        -0.37663        -1.03885
H           6.02529         0.89978        -1.95249
H           6.65345         2.93729        -0.76376
H           6.47496         4.47496         1.40713
H           5.31390         4.22748         3.74078
H           3.99993         1.86357         3.80851

