%chk=On1ccc2cqcnocccn1rdCCdCCdC[N]CdCCd2.chk
%NProcShared=20
# opt freq b3lyp/6-31g(2df,p)

Title Card Required 

0  2
O           1.22667         0.12456         0.04158
N           3.14367         0.43455         0.13862
C           3.75566        -1.34698        -0.41907
C           5.39329        -2.23856        -0.69817
C           7.01893        -3.72748        -1.16427
C           6.97369        -2.34088        -0.73020
C           7.50758        -1.09878        -0.34137
N           6.79274        -0.07928        -0.02223
O           7.53469         0.99105         0.31283
C           6.80880         2.02618         0.63687
C           7.27568         3.15383         0.98987
C           5.41120         3.37462         1.05899
N           4.11887         2.17563         0.68365
C           7.80194        -3.45073        -1.07763
C           9.15271        -3.20959        -1.00214
C           9.99973        -4.27148        -1.33456
C          11.16818        -3.90194        -1.21888
C          10.30660        -4.82579        -1.50808
N          12.01231        -5.16287        -1.61360
C          12.56274        -6.62871        -2.07247
C          11.00827        -5.95537        -1.86169
C           8.65452        -5.04351        -1.57624
H           0.72232        -0.81571        -0.25276
H           2.64203        -2.02205        -0.63040
H           5.16048        -0.71207        -0.22032
H           8.54201        -1.15800        -0.35991
H           5.80704         1.86915         0.58771
H           8.41787         3.34517         1.04977
H           6.18926         4.73200         1.48390
H           7.36839        -5.20573        -1.62702
H           9.61080        -2.41364        -0.75298
H           9.46537        -5.93216        -1.85442
H          11.99165        -3.51619        -1.09812
H          10.15317        -6.70932        -2.09771
H          13.38833        -7.76993        -2.42972
H          12.77358        -6.25021        -1.95398
H           6.87558        -4.39422        -1.37298

