%chk=ONC1dNNdCCdNc2c1c1nn2-1.chk
%NProcShared=20
# opt freq b3lyp/6-31g(2df,p)

Title Card Required 

0  1
O           2.22444        -0.99368         0.82114
N           3.90551        -1.03886         1.46710
C           5.00355        -2.33461         1.99616
N           5.16755        -1.73256         0.75811
N           5.45636        -2.60330        -0.14473
C           6.68646        -2.37967        -0.06653
C           7.24760        -3.67106         0.20703
N           8.43256        -3.36659         0.58341
C           8.11373        -3.66402         1.87476
C           6.81625        -3.35650         2.51061
C           7.65626        -4.84510         3.24808
N           8.74301        -5.66077         2.94798
N           8.27335        -4.96804         2.01461
H           1.89192        -0.11933         0.27353
H           4.19498        -0.51835         0.55157
H           7.17225        -1.45981         0.43017
H           6.44110        -4.45231         0.81414

