%chk=ONN1CdCCdC2CdCCdCC1dC2.chk
%NProcShared=20
# opt freq b3lyp/6-31g(2df,p)

Title Card Required 

0  1
O           0.96103        -0.02281        -0.16294
N           2.43423         0.05222        -0.19655
N           3.02966         0.87239        -1.31299
C           2.60717         2.21300        -1.19948
C           2.57109         3.12618        -2.09921
C           2.75086         2.88820        -3.53361
C           2.59820         1.72423        -4.27284
C           3.16579         1.69994        -5.67571
C           4.36463         2.27337        -5.54592
C           5.19663         1.27748        -4.69439
C           4.87075         0.48427        -3.51708
C           3.45851         0.31815        -2.62294
C           2.57431         0.34460        -3.63826
H           0.74480        -0.27793         0.76313
H           2.71237        -0.92204        -0.23155
H           2.20377         2.44928        -0.19101
H           2.34193         4.16976        -1.81508
H           3.11294         3.82552        -3.96279
H           3.37335         0.65053        -6.01868
H           4.30052         3.37491        -5.50528
H           5.68120         0.88010        -5.62370
H           5.06311        -0.61818        -3.54821
H           2.95791        -0.38121        -4.41003

