%chk=ONSCdCC1dCSCdNCdCCdCCdN1.chk
%NProcShared=20
# opt freq b3lyp/6-31g(2df,p)

Title Card Required 

0  1
O           0.91703        -0.06663        -0.06238
N           2.38805        -0.06374        -0.08986
S           3.03951        -1.51694        -0.98196
C           5.39794        -1.82000        -1.17614
C           6.95341        -2.85612        -1.82697
C           9.15645        -3.63611        -2.31718
C           7.51364        -3.70624        -2.36124
S           9.15483        -3.98049        -2.53350
C           9.82562        -5.37423        -3.40940
N          11.57138        -5.62193        -3.56529
C          10.96915        -6.26543        -3.96922
C          12.73415        -5.26529        -3.34085
C          12.84741        -6.91459        -4.37704
C          14.28457        -7.25259        -4.58940
C          12.44548        -6.41138        -4.06066
N          11.13749        -4.66229        -2.96162
H           0.62620         0.73271         0.42116
H           2.64739        -0.09486         0.89986
H           5.26589        -0.72602        -0.48946
H           5.28767        -3.19352        -2.03921
H           6.96609        -4.38652        -2.78873
H           9.09223        -5.86880        -3.71998
H          10.96948        -7.10814        -4.49867
H          14.00686        -5.73106        -3.63345
H          12.74958        -8.27751        -5.23338
H          15.56040        -7.19434        -4.55282
H          13.76975        -7.63357        -4.82876

