%chk=OOC1dCCdCCdCCdCC2dCCdCCdCOC21.chk
%NProcShared=20
# opt freq b3lyp/6-31g(2df,p)

Title Card Required 

0  1
O           2.17804         0.75092         0.02517
O           4.07475         2.17019         0.20182
C           5.88833         3.58120         0.37745
C           4.98048         1.88019         0.16573
C           5.80441         2.79811         0.27998
C           7.15529         2.33398         0.22221
C           7.76162         3.48742         0.36577
C           8.99444         3.62562         0.38297
C           9.77410         4.96921         0.55021
C          11.04910         4.83916         0.53402
C          10.16675         5.82045         0.65616
C          11.97046         5.88784         0.66455
C          13.42658         6.75170         0.77207
C          14.64855         6.89293         0.78965
C          14.19633         8.37833         0.97453
C          12.18963         7.77342         0.89924
O          10.03142         6.64064         0.75825
C           7.97839         5.33224         0.59539
H           1.15477        -0.46946        -0.12673
H           5.03523         0.43303        -0.01440
H           4.54731         3.93717         0.42175
H           7.18200         1.40702         0.10683
H           8.62201         4.08372         0.43999
H           9.36202         2.77930         0.27764
H           8.78966         6.34254         0.72114
H          11.45627         4.00080         0.42967
H          13.26001         5.46986         0.61252
H          13.00998         8.55720         0.99680
H          15.58531         6.80926         0.77923
H          15.15244         9.81699         1.15360
H          14.01203         8.19308         0.95147
H           6.33963         5.11929         0.56889

