%chk=SC12CdCSCdCCdC1CdCCdCNdCCdCO2.chk
%NProcShared=20
# opt freq b3lyp/6-31g(2df,p)

Title Card Required 

0  1
S           1.92882        -0.43933         0.23402
C           4.18116        -1.60461        -0.00828
C           3.79191         0.25170        -0.76740
C           4.72774         1.12927        -1.09696
S           5.18804         2.42164        -2.25372
C           6.82728         1.72778        -2.11250
C           6.78294         0.02944        -1.93751
C           6.25311        -1.91839        -1.07226
C           5.41384        -3.43668        -0.21807
C           5.15533        -5.70100         0.57074
C           4.49974        -7.30407         1.40653
C           3.24460        -8.11129         0.91175
C           2.89923        -6.97636         1.51695
N           3.12546        -5.92181         0.73874
C           2.99632        -4.73961         1.11459
C           3.26112        -3.71806         0.21560
C           2.91109        -2.51476         0.45741
O           3.09532        -1.67721        -0.86827
H           0.88608         1.00090         0.32364
H           2.85317         1.21041        -1.35246
H           5.49020         0.69528        -0.55867
H           7.74026         1.93118        -1.52228
H           7.16888         1.30369        -2.88603
H           7.39271        -0.97269        -1.56224
H           5.23281        -7.32760         0.65189
H           3.62071        -8.51296         2.28607
H           3.85033        -8.46608         0.05659
H           2.50564        -6.95364         2.51165
H           2.46205        -4.58803         1.99185
H           3.80501        -3.79877        -0.71921
H           2.37993        -2.19750         1.37775

