%chk=SCCCC1dCNdCCdCCdCSCdCSCdC1.chk
%NProcShared=20
# opt freq b3lyp/6-31g(2df,p)

Title Card Required 

0  1
S           0.98042         0.02512        -0.08082
C           2.88414        -0.00607        -0.03730
C           3.99711        -1.09484         1.48162
C           6.01053        -1.87295         2.56723
C           7.60804        -3.13283         4.32601
C           6.91195        -2.06755         2.83865
N           7.67305        -2.59434         3.57351
C           9.00096        -2.58894         3.56597
C           9.33719        -3.33099         4.60099
C          10.66496        -3.47382         4.80035
C          10.93348        -4.27292         5.91477
C          12.08500        -4.29192         5.94173
S          11.52566        -5.91551         8.20677
C          13.83096        -5.36143         7.43394
C          14.27761        -6.28692         8.72490
S          14.16272        -5.42478         7.52206
C          11.51494        -5.05711         6.99776
C           9.45434        -4.20752         5.85394
H           0.54977         0.77944        -1.13314
H           3.16010         1.04655         0.00977
H           3.16010        -0.38871        -1.01904
H           2.99451        -1.82900         0.99895
H           2.99451        -0.40196         2.02186
H           5.46909        -0.37691         1.60488
H           5.46909        -1.44215         0.84131
H           7.40815        -1.33207         1.81257
H           9.26284        -2.11181         2.90036
H           8.22965        -4.23439         5.86176
H          11.22642        -3.07805         4.24833
H          10.11163        -5.07182         7.02966
H          12.95669        -4.20228         5.81671
H          15.03106        -4.69877         6.50941
H          14.64282        -6.84370         9.50153
H          12.84514        -5.87443         8.14921
H           8.03896        -3.66798         5.05265

