%chk=SCdNC1CCdCCdCCdNCdNCdNCdN1.chk
%NProcShared=20
# opt freq b3lyp/6-31g(2df,p)

Title Card Required 

0  1
S           1.81824        -0.02395         0.19266
C           4.22724        -0.11286         0.64651
N           5.87226        -0.27281         1.55561
C           7.94667        -0.41199         2.45591
C           6.01973        -1.16147         2.58808
C           7.37265        -1.61971         2.30239
C           7.66796        -2.17880         3.43712
C           9.00984        -2.25423         3.25412
C           9.71397        -2.64946         4.30444
C          11.18195        -2.90041         4.24024
N          11.82791        -3.32769         5.35011
C          13.26275        -3.78803         5.31135
N          14.03692        -3.78721         6.44264
C          14.87142        -3.06906         5.76256
N          13.54608        -1.90013         5.51969
C          11.84705        -1.13938         4.49332
N          10.19459        -0.73345         3.53182
H           0.69225         0.62274        -1.10541
H           3.59347         0.40791        -0.67068
H           6.81346        -0.70887         1.22479
H           5.20685        -2.16064         2.23508
H           5.16354        -0.59651         3.17509
H           7.94630        -0.97547         0.95870
H           6.99578        -2.21397         4.22060
H           9.55700        -1.53763         2.25532
H           9.24403        -2.76623         5.22026
H          11.82498        -2.15265         3.22875
H          13.94176        -3.07778         4.29949
H          16.08205        -2.96632         5.37704
H          13.51121        -1.46083         4.93895

