%chk=SdC1[C]C2dCdC2NdCC1dS.chk
%NProcShared=20
# opt freq b3lyp/6-31g(2df,p)

Title Card Required 

0  1
S           0.93721        -0.11299        -0.75857
C           2.47384        -0.07319        -0.15712
C           2.92981        -1.05551         0.76068
C           3.75439        -1.27794         1.87234
C           3.51395        -0.72523         3.00926
C           4.45362        -0.06373         2.42061
N           4.23045         1.26462         2.16847
C           3.78858         1.81396         1.07404
C           3.31282         1.15056        -0.18041
S           3.92636         1.72976        -1.61573
H           3.71597         2.91550         1.05470

