%chk=SdC1CdNNdc2sccc2dCS1.chk
%NProcShared=20
# opt freq b3lyp/6-31g(2df,p)

Title Card Required 

0  1
S           1.73408         0.57853         0.14683
C           3.30422         0.05183        -0.01318
C           3.46362        -1.34875        -0.43510
N           4.66420        -1.61853        -0.51255
N           5.16649        -2.76860        -0.86373
C           6.41531        -2.49379        -0.78189
S           7.53706        -3.76675        -1.16580
C           8.88939        -2.76104        -0.85275
C           8.59754        -1.49856        -0.47479
C           7.13151        -1.17398        -0.38297
C           6.58870         0.05046        -0.01645
S           4.90618         0.87680         0.23108
H           2.60894        -2.01507        -0.63925
H           9.86819        -3.20778        -0.97979
H           9.41267        -0.81561        -0.26396
H           7.33437         0.82187         0.21374

