%chk=SdC1CdC2CdCCdCCdCCdCCdC12.chk
%NProcShared=20
# opt freq b3lyp/6-31g(2df,p)

Title Card Required 

0  1
S           2.02799         0.71516        -0.03452
C           3.86298         1.04315        -0.05485
C           4.20314        -0.34623        -0.04529
C           5.37729         0.28658        -0.03409
C           6.46747        -0.52247        -0.03101
C           7.34354         0.36489        -0.02783
C           8.63998         0.23010        -0.02941
C           9.27965         1.29152         0.03052
C          10.51469         1.73959         0.13637
C           9.93407         3.03340         0.37259
C          10.96290         3.53607        -0.21042
C           9.30401         3.70224        -0.40889
C           7.14439         3.02916        -0.05398
C           5.54417         2.18886        -0.08671
H           3.81417        -1.59779        -0.04984
H           6.75784        -1.50814        -0.03065
H           7.06278         1.32255        -0.01980
H           9.20806        -0.56693        -0.02050
H           8.54324         1.98196         0.07104
H          11.35874         1.03969        -0.03111
H          10.01582         4.66560         0.42593
H          12.19730         2.87452        -0.02266
H          10.81945         4.08916        -0.30596
H           6.32497         3.75111        -0.04592

