%chk=SdC1CdCCdCCdCCdCCdCCdCCdCCdC1.chk
%NProcShared=20
# opt freq b3lyp/6-31g(2df,p)

Title Card Required 

0  1
S           4.30457        -1.07023         0.26563
C           7.03071        -1.96801         0.45228
C           4.57410        -1.69750         0.39604
C           5.85765        -1.62062         0.38005
C           5.57977        -3.00085         0.66701
C           7.10836        -3.40314         0.75064
C           7.79819        -4.23157         0.92288
C           9.09943        -4.50841         0.98043
C           9.60262        -5.43715         1.17352
C          10.66476        -5.47743         1.18190
C          11.31869        -6.80744         1.45841
C          12.41772        -6.49022         1.39246
C          13.29726        -7.88564         1.68257
C          14.49925        -7.51430         1.60537
C          15.27138        -8.18466         1.74474
C          14.11999        -6.33673         1.36055
C          11.88857        -4.65971         1.01189
C           9.65874        -3.30487         0.73021
H           2.97551        -2.31335         0.52407
H           5.53990        -0.31589         0.10880
H           4.93379        -3.64650         0.80124
H           8.49154        -2.75845         0.61661
H           7.12722        -4.85089         1.05164
H          10.64288        -3.06129         0.67957
H           9.24696        -6.17423         1.32676
H          11.18786        -3.83044         0.83948
H          11.28002        -7.71033         1.64612
H          13.43057        -5.01424         1.08560
H          13.47659        -8.78411         1.86936
H          15.89655        -6.48435         1.39124
H          15.60553        -9.87393         2.09594
H          15.89616        -7.44644         1.59126
H          13.53020        -5.94891         1.27992
H           8.21764        -1.86787         0.43146

