%chk=SdC1CdCCdCC2dCCdCCCN[SH]2S1.chk
%NProcShared=20
# opt freq b3lyp/6-31g(2df,p)

Title Card Required 

0  1
S           2.19722         1.23176        -0.00801
C           3.45148         0.98098        -1.14824
C           3.39994        -0.30511        -1.81610
C           4.59355        -0.89719        -1.60406
C           5.41183        -0.78876        -2.74803
C           6.68702        -0.42485        -2.47642
C           7.29499         0.34839        -3.45315
C           8.53230        -0.02668        -3.85026
C           8.83280        -0.72926        -5.10631
C           9.04006        -0.06080        -6.24146
C           8.64584         1.38398        -6.28918
C           7.11099         1.50833        -6.57642
N           6.01926         1.66108        -5.47548
S           6.42601         1.81837        -3.76400
S           4.64633         2.27384        -2.01306
H           2.85589        -0.18059        -2.73430
H           5.11685        -0.75901        -0.65508
H           4.95467        -0.47791        -3.69595
H           7.12664        -0.34802        -1.49923
H           9.05857        -0.65120        -3.12632
H           9.03099        -1.80492        -5.07432
H           9.43119        -0.56909        -7.12657
H           9.27239         1.84736        -7.06471
H           8.92581         1.90891        -5.37151
H           6.83519         0.62167        -7.17696
H           7.01067         2.34108        -7.28150
H           5.48061         0.79627        -5.56125
H           7.23720         2.88925        -3.64652

