%chk=SdC1CCdC2CdCCdCCdCC2dCS1.chk
%NProcShared=20
# opt freq b3lyp/6-31g(2df,p)

Title Card Required 

0  1
S           1.60139        -0.14839         0.02018
C           3.26973         0.04173         0.22927
C           4.15673        -1.16749         0.25872
C           4.77752        -1.27782         1.62253
C           5.26724        -0.38814         2.52586
C           5.18717        -0.87238         3.89910
C           4.85326         0.07621         4.79847
C           5.54075         0.22717         6.05309
C           6.39771         1.28307         5.88952
C           7.28939         1.38761         4.72356
C           7.04542         1.52810         3.36236
C           5.85487         1.00312         2.33840
C           5.46584         1.73464         1.25764
S           4.06876         1.60715         0.18550
H           4.81727        -1.19117        -0.61192
H           3.51312        -2.06325         0.13702
H           4.61382        -2.29694         1.97728
H           5.59372        -1.84795         4.12287
H           4.55643         1.06132         4.41014
H           6.02359        -0.69479         6.34646
H           6.01215         2.26281         6.17430
H           8.22905         1.57948         5.27127
H           7.81537         2.11497         2.84423
H           6.00813         2.64620         1.01736

