%chk=SdCCSc1ccsccccccsc1S.chk
%NProcShared=20
# opt freq b3lyp/6-31g(2df,p)

Title Card Required 

0  1
S           0.92728         0.01551         0.07812
C           2.66578         0.03275         0.11250
C           3.55278         0.65510         1.44464
S           5.78286         0.97884         2.10129
C           7.65079         1.57258         3.47620
C           7.76830         1.02581         2.26057
C           8.41976         1.53195         3.29064
S          10.08958         1.35002         2.91736
C          10.73342         1.97429         4.26528
C          12.05148         1.98882         4.28834
C          12.79855         2.46705         5.31219
C          14.13849         2.63558         5.66671
C          14.68714         3.41850         7.33498
C          13.64149         3.09812         6.63551
S          10.98702         2.96965         6.33763
C           8.66998         2.35596         5.02360
S           6.19107         2.42199         5.17238
H           3.13113        -0.38398        -0.77364
H           3.07465         0.01147         2.18502
H           3.07362         1.63680         1.42222
H           8.11346         0.63853         1.39996
H           7.54203         2.12723         4.58020
H          10.06398         2.40406         5.23931
H          12.85262         1.72015         3.71158
H          12.38358         3.15768         6.78967
H          14.94669         2.31269         4.97649
H          14.41142         3.86281         8.28204
H          15.35175         2.98398         6.40545
H           4.50772         2.13549         4.59783

