%chk=SdCc1ccsc2cqCdSrccc1-2.chk
%NProcShared=20
# opt freq b3lyp/6-31g(2df,p)

Title Card Required 

0  1
S           1.03201        -0.08776         0.05640
C           2.70425        -0.00930        -0.13762
C           3.41264         0.74190        -1.22425
C           2.95241         2.08895        -1.52505
C           3.41251         2.85916        -2.52399
S           4.64783         2.42360        -3.62449
C           5.08422         0.87599        -3.04291
C           6.01774         0.03718        -3.54566
C           6.94078         0.19522        -4.71236
S           7.13285         1.47326        -5.78427
C           6.00712        -1.19229        -2.73949
C           5.07427        -1.10805        -1.76894
C           4.43768         0.19514        -1.90687
H           3.36328        -0.52050         0.58329
H           2.17877         2.51089        -0.89190
H           2.98376         3.84300        -2.66776
H           7.58822        -0.68153        -4.87517
H           6.65756        -2.03768        -2.92045
H           4.85065        -1.86999        -1.03720

