%chk=SdCC1dNNNSC2dCCdCSC2dCCdCS1.chk
%NProcShared=20
# opt freq b3lyp/6-31g(2df,p)

Title Card Required 

0  1
S           2.02909        -1.29612         0.40797
C           3.61841        -1.41421        -0.18947
C           4.85579        -1.93228         0.65719
N           5.18856        -0.90827         1.37509
N           5.69430        -1.16013         2.54583
N           7.06604        -1.28635         2.44777
S           7.54941        -1.75894         3.94604
C           9.22555        -2.10134         3.61744
C          10.05614        -1.08682         4.01500
C          11.45686        -1.17247         3.93030
C          12.12982        -2.19220         3.37235
S          11.38040        -3.52681         2.52502
C           9.70562        -3.28198         2.92769
C           8.65558        -4.06539         2.47439
C           8.35119        -4.78047         1.32218
C           7.07727        -4.75534         0.75027
S           5.34164        -3.76034         0.79447
H           3.86004        -0.57557        -0.88627
H           5.27180        -1.98559         2.98189
H           7.45986        -0.39845         2.12799
H           9.59764        -0.21601         4.45198
H          11.98255        -0.34140         4.39464
H          13.21541        -2.16325         3.42007
H           7.74944        -4.02835         3.03790
H           9.11330        -5.57707         1.14073
H           6.90661        -5.78709         0.39904

