%chk=SdCSCCCdC1CdC1C[SH]dS.chk
%NProcShared=20
# opt freq b3lyp/6-31g(2df,p)

Title Card Required 

0  1
S           1.04931         0.04559        -0.07629
C           2.71858        -0.00378        -0.01867
S           3.53417        -1.00287         1.15526
C           5.26630        -0.66649         0.76013
C           6.04996        -1.49301         1.73040
C           7.51806        -1.35524         1.56909
C           8.26171        -2.04055         2.37612
C           9.45796        -2.41109         2.80925
C           8.43274        -2.98640         3.49332
C           6.96851        -3.29176         3.84717
S           6.63127        -4.52976         5.16195
S           4.63092        -4.51572         5.27616
H           3.34280         0.58462        -0.70969
H           5.52503         0.38437         0.91163
H           5.52479        -0.98369        -0.25339
H           5.78928        -2.54773         1.57709
H           5.78993        -1.17953         2.74946
H           7.95664        -0.71241         0.80984
H          10.45850        -2.18211         2.53837
H           6.44438        -3.73761         2.99329
H           6.43894        -2.39471         4.19368
H           6.85024        -3.81432         6.23887

