%chk=SN1CdCc2cccccc3cc-3c2CdCC1.chk
%NProcShared=20
# opt freq b3lyp/6-31g(2df,p)

Title Card Required 

0  1
S           1.01171         0.08654         0.14332
N           2.66208         0.36188        -0.23370
C           3.60555         1.45168        -0.70183
C           5.24883         1.79564        -0.38217
C           6.36521         3.39334        -0.20278
C           7.24555         2.37607         0.03129
C           8.30316         2.97794        -0.00314
C           9.58362         2.96546        -0.00669
C          10.08576         4.09805        -0.04477
C          11.25695         4.65351        -0.06489
C          10.45768         5.68112        -0.09990
C          10.42391         6.89561        -0.12862
C           8.77881         6.25324        -0.08776
C           6.92047         5.02445        -0.07398
C           5.12308         4.35087         0.25118
C           3.97435         3.01905         0.65128
C           3.67233         0.87667         0.74082
H           0.56342         1.32350         0.03554
H           2.62895         2.01507        -0.32687
H           5.72724         0.70208         0.01094
H           7.48915         1.39061         0.03540
H           8.09470         3.92196        -0.06210
H          10.18064         2.21342         0.01102
H           9.22135         4.64098        -0.05499
H          12.16326         4.11682        -0.04881
H          11.96367         6.56379        -0.13014
H           4.26410         4.06949        -0.55682
H           2.87274         3.83755         0.21097
H           3.87603        -0.32746         1.17791
H           4.02033        -0.28166        -0.16810

