%chk=SNdC1CdCCdCCdC2CdC2NdCCdC1.chk
%NProcShared=20
# opt freq b3lyp/6-31g(2df,p)

Title Card Required 

0  1
S           1.15006         0.82249         0.07080
N           2.74783         1.21653         0.09434
C           3.62275         2.20649         0.15350
C           4.87706         1.41673         0.10631
C           5.89539         2.20735         0.15355
C           7.25313         1.95582         0.13852
C           7.89329         3.08942         0.20626
C           9.26864         3.31033         0.21946
C           9.62005         4.53296         0.29252
C          10.52359         5.50010         0.35031
C           9.20270         5.96951         0.37837
N           7.80465         5.67503         0.36077
C           6.54903         6.09806         0.38605
C           4.87062         5.21877         0.33350
C           3.87561         4.04946         0.26363
H           1.04530        -0.58235        -0.01315
H           4.98910         0.34178         0.04207
H           5.67113         3.23350         0.21487
H           7.72440         1.01134         0.08208
H           7.25214         3.94103         0.25715
H           9.91037         2.44909         0.16800
H          11.58573         5.33865         0.34067
H           6.41156         7.20876         0.45242
H           4.32060         6.18583         0.39129
H           2.79676         4.28927         0.27796

