%chk=SSC1dCCdCCdCCdCNdCCdCdCSC1S.chk
%NProcShared=20
# opt freq b3lyp/6-31g(2df,p)

Title Card Required 

0  1
S           1.39446         0.13174        -0.25071
S           3.75330         0.30557        -1.45681
C           5.33874         0.25621        -3.26439
C           5.46869         0.89840        -1.89620
C           6.01215         1.77346        -2.78403
C           7.24815         1.68704        -3.14971
C           7.56012         2.45651        -4.34148
C           8.80739         2.29376        -4.66580
C           9.07362         3.28101        -5.78084
C          10.40344         3.31587        -6.10736
N          10.62320         3.73634        -7.44207
C          11.92274         3.98338        -7.63383
C          12.39159         3.92051        -9.19650
C          12.36589         2.59821        -8.81561
C          11.23627         1.72253        -7.76324
S           8.89321         1.07313        -6.65827
C           6.66727         0.74534        -5.08059
S           4.19830         0.73619        -4.28325
H           0.63250        -0.37056         1.16520
H           5.89855         0.45689        -0.97366
H           5.42863         2.28642        -3.63350
H           7.72667         1.00333        -2.50518
H           6.86810         2.62377        -5.43195
H           9.48525         1.64985        -4.11904
H           8.37297         3.09711        -6.87868
H          11.15415         2.44139        -5.69052
H          12.86556         3.19923        -6.88988
H          12.00670         3.98478       -10.22809
H          12.73514         2.36868        -8.07625
H           5.29876         1.31419        -5.22334
H           2.99718         0.69650        -2.80115

