%chk=[CH]1C2dCCdCCdNCdCNdCCdC12.chk
%NProcShared=20
# opt freq b3lyp/6-31g(2df,p)

Title Card Required 

0  2
C          -3.68893         1.31693        -0.72140
C          -5.62126         0.62993        -0.69894
C          -7.28932         0.56714        -0.32028
C          -9.22147        -0.23262         0.19664
C          -9.14151        -0.46024        -1.07282
C          -8.92235        -1.75776        -0.11683
N          -7.74131        -1.56018         0.13845
C          -6.63201        -2.02234         0.15422
C          -5.78780        -1.12267         0.54224
N          -4.63856        -1.73890         0.19405
C          -3.75818        -0.84673         0.46389
C          -2.47235        -0.94776        -0.13092
C          -3.68713        -0.06141        -0.66896
H          -2.21728         1.16632        -0.58863
H          -8.50000         0.69658         0.64126
H         -10.47338        -1.12762         0.05302
H          -9.80070         0.60344        -0.66983
H          -9.37780        -2.71760        -0.10132
H          -6.64392        -3.00579        -0.07561
H          -6.14527         0.20390         0.91422
H          -4.17235         0.41089         0.98019
H          -2.00432        -2.13558         0.01372

