%chk=[CH]C1SCdCC2dCC2dCNdCCdC1C.chk
%NProcShared=20
# opt freq b3lyp/6-31g(2df,p)

Title Card Required 

0  1
C           1.80270        -0.18186         0.46186
C           3.28947        -0.10621         0.34216
S           3.18534         0.82924        -1.35288
C           4.75735         1.35723        -1.35723
C           5.51943         2.15505        -2.10260
C           6.91551         2.09693        -1.90118
C           8.07727         2.48969        -2.30264
C           8.15395         1.35615        -1.40914
C           7.65417         0.44982        -0.55884
N           7.88719        -0.65007         0.24620
C           6.84610        -0.79368         1.06020
C           5.59493        -1.72264         0.90777
C           4.23568        -1.49124         0.56127
C           3.23706        -2.65339         0.67861
H           0.85096         0.27979         0.26451
H           3.53782         0.54899         1.18304
H           5.14640         0.80136        -0.56078
H           5.10179         2.80088        -2.86873
H           8.34917         3.09585        -3.12371
H           6.62910         0.48232        -0.51893
H           6.53474         0.07365         1.65918
H           5.97909        -2.64720         1.40193
H           3.49764        -3.54854         0.10988
H           2.25672        -2.38752         0.26789
H           3.04127        -2.86488         1.73441

