%chk=C.CdCqOrCCqdCrCqCrCC.chk
%NProcShared=20
# opt freq b3lyp/6-31g(2df,p)

Title Card Required 

0  1
C           0.00823         0.21114        -0.95099
C           1.61198        -0.20345         1.32111
C           2.61777        -0.28507         0.47338
O           2.85198        -1.49434        -0.17926
C           3.35395         0.95309        -0.04690
C           4.85472         0.80294        -0.06848
C           5.43817        -0.40304         0.11724
C           5.68210         2.07114        -0.29580
C           5.38906         3.13856         0.77019
C           7.16645         1.66921        -0.26251
C           8.15598         2.77564        -0.46624
H           1.05716         0.45757        -0.95312
H          -0.44233         0.27780         0.04408
H          -0.05126        -0.81901        -1.30344
H          -0.40263         0.98244        -1.58617
H           0.95393        -1.06435         1.44691
H           1.22438         0.78452         1.57554
H           2.50865        -2.20498         0.39045
H           3.07088         1.79736         0.59801
H           3.00221         1.23814        -1.04963
H           4.89528        -1.31188         0.30281
H           6.49738        -0.59060         0.10283
H           5.44828         2.49624        -1.28408
H           5.54175         2.73027         1.77481
H           4.36440         3.51852         0.70678
H           6.03503         4.01426         0.65838
H           7.35261         0.92114        -1.04685
H           7.38720         1.20808         0.71115
H           7.99565         3.24238        -1.43863
H           9.16164         2.34833        -0.42709
H           8.07753         3.51857         0.32738

