%chk=C1dCC2dCCCdC2C2dCqCC2rNC1.chk
%NProcShared=20
# opt freq b3lyp/6-31g(2df,p)

Title Card Required 

0  1
C           0.34535         2.10863        -0.49128
C          -0.80254         2.25342         0.17163
C          -1.92530         1.49311        -0.31955
C          -2.81990         1.78308        -1.23357
C          -3.85083         0.69667        -1.25862
C          -3.28697        -0.29835        -0.19938
C          -2.01991         0.10933         0.08397
C          -0.70348        -0.67485         0.05809
C           0.72927        -0.47915        -0.05395
C           0.66038        -1.92436        -0.55493
C          -0.19601        -1.86026         0.84960
N           1.74674         0.34885        -0.10845
C           1.56049         1.72201         0.29307
H           0.30638         1.64437        -1.49132
H          -0.78440         2.28207         1.26456
H          -2.80357         2.69326        -1.82326
H          -3.90108         0.20079        -2.23489
H          -4.83449         1.14308        -1.05980
H          -3.98464        -0.49524         0.62711
H           1.47933        -2.63820        -0.62402
H           0.37823        -1.76165        -1.63238
H           0.15972        -1.37101         1.81168
H          -0.74280        -2.71858         1.20672
H           2.70784         0.08930        -0.33964
H           2.40011         2.36547         0.03683
H           1.41884         1.73468         1.38392

