%chk=C1dCC2CdCqCCC2rC2CC2C1.chk
%NProcShared=20
# opt freq b3lyp/6-31g(2df,p)

Title Card Required 

0  1
C           0.42655         1.97432        -0.48972
C          -0.74447         1.58607        -0.01209
C          -1.35947         0.38446        -0.77316
C          -0.08018        -0.53108        -1.20221
C           0.66635        -1.00835        -0.15907
C          -0.29915        -1.55479         0.86916
C          -1.70996        -1.81486         0.19143
C          -2.34453        -0.43641         0.10616
C           2.18895        -0.94084         0.07493
C           3.40441        -0.05621         0.59267
C           2.49497         0.55600        -0.33195
C           1.71028         1.73210         0.26980
H           0.61126         1.78646        -1.56124
H          -0.95428         1.64047         1.07158
H          -1.91285         0.80935        -1.61994
H           0.13992        -0.76221        -2.24185
H          -0.38898        -0.77875         1.63622
H           0.05203        -2.47474         1.32718
H          -2.31392        -2.56036         0.70402
H          -1.65600        -2.18213        -0.85487
H          -2.47595        -0.04118         1.12649
H          -3.35561        -0.47340        -0.32119
H           2.66149        -1.89082        -0.15644
H           4.41502        -0.13627         0.15598
H           3.52718         0.45682         1.54754
H           2.79416         0.69922        -1.36115
H           2.32560         2.62929         0.22956
H           1.49425         1.51646         1.32941

