%chk=CC1CCCCqCrC1Oc1ccccc1.chk
%NProcShared=20
# opt freq b3lyp/6-31g(2df,p)

Title Card Required 

0  1
C           0.83178         0.00248        -0.07719
C           2.36046        -0.02497        -0.10491
C           2.90310        -1.42270        -0.46485
C           2.54344        -1.80503        -1.89265
C           3.05956        -0.75682        -2.87731
C           2.59619         0.66964        -2.51263
C           3.14111         1.66562        -3.53371
C           2.98498         1.03508        -1.04521
O           4.43435         1.10165        -0.99565
C           5.05462         1.40523         0.18598
C           5.97766         2.45232         0.19062
C           6.78628         2.66797         1.31610
C           6.63638         1.88840         2.46207
C           5.71944         0.84878         2.46452
C           4.98938         0.58669         1.31210
H           0.46668        -0.72929         0.65159
H           0.37354        -0.23336        -1.03858
H           0.47950         0.99113         0.23242
H           2.61485         0.21695         0.92687
H           2.53328        -2.17078         0.24375
H           3.99810        -1.44979        -0.39129
H           1.45767        -1.90659        -1.98852
H           2.96988        -2.78516        -2.13209
H           2.71591        -1.01960        -3.88437
H           4.15638        -0.79514        -2.89835
H           1.50374         0.70228        -2.60680
H           4.23449         1.68316        -3.54185
H           2.77654         2.67471        -3.31834
H           2.80222         1.39747        -4.54119
H           2.58990         2.03273        -0.81069
H           6.10144         3.07792        -0.68782
H           7.55806         3.43426         1.29230
H           7.24983         2.05846         3.34048
H           5.59835         0.20397         3.32884
H           4.41294        -0.32640         1.33237

