%chk=Cc1cc2ccncccccc2cn1.chk
%NProcShared=20
# opt freq b3lyp/6-31g(2df,p)

Title Card Required 

0  1
C           0.96943         0.00107        -0.01801
C           2.48317         0.05489        -0.02174
C           3.04203         1.25749         0.10189
C           4.46973         1.77314        -0.28981
C           4.62196         3.01279         0.22817
C           3.77950         3.73215        -0.45787
N           4.27462         4.86385        -0.60214
C           4.00729         6.03170        -0.31793
C           5.43982         6.58176         0.10634
C           5.09332         7.11383        -1.04947
C           6.12068         5.42369        -1.49767
C           6.16971         3.69964        -1.20926
C           5.72663         1.65128        -0.74797
C           4.99338         0.04202        -0.43186
N           3.49445        -0.75111        -0.18096
H           0.55739         1.03846         0.03705
H           0.56169        -0.53004         0.84041
H           0.56659        -0.41536        -0.94511
H           2.47260         2.10393         0.39262
H           5.47147         3.61305         0.53739
H           2.83691         3.72229        -0.10675
H           2.99762         6.38123        -0.12732
H           6.71009         6.88752        -0.39826
H           4.04616         8.01157        -0.65720
H           5.87581         6.93493        -1.70440
H           7.01610         2.73546        -1.12119
H           5.31477        -1.25675        -0.10531

