%chk=CC1C2dCCC2C1CqNrdO.chk
%NProcShared=20
# opt freq b3lyp/6-31g(2df,p)

Title Card Required 

0  1
C           1.15194         0.38211        -0.30266
C           2.60773         0.11853        -0.31175
C           3.24930         0.79146         0.76813
C           3.84337         1.35553         1.79579
C           4.31099         0.12994         2.36736
C           3.42870        -0.77502         1.62850
C           2.78259        -1.20438         0.35054
C           1.52734        -2.09238         0.83798
N           0.18660        -1.68364         0.72016
O           1.72401        -3.15293         1.44488
H           0.69223         1.26968        -0.69136
H           0.84573         0.40174         0.78101
H           0.78154        -0.42914        -0.95583
H           3.08210         0.14247        -1.29044
H           4.09491         2.35875         2.11777
H           3.94147        -0.00319         3.38204
H           5.36716        -0.02468         2.17160
H           4.07404        -1.67986         1.82460
H           3.50281        -1.75223        -0.28577
H          -0.23519        -0.84366         0.34709
H          -0.59897        -2.21669         1.02692

