%chk=CCC1dCdCNdCqCqCCCCqCrNrCOOrC1.chk
%NProcShared=20
# opt freq b3lyp/6-31g(2df,p)

Title Card Required 

0  1
C           1.12014        -0.14461        -0.09621
C           2.64751        -0.10587        -0.03785
C           3.17521        -0.95617         1.09876
C           3.32142        -2.32199         0.87162
C           3.30593        -3.14276         1.97413
N           3.01854        -2.72120         3.22555
C           2.88375        -1.38904         3.44095
C           2.29793        -0.97554         4.80625
C           0.94566        -0.19500         4.73485
C           1.06137         1.09577         3.95093
C          -0.17826         1.94783         3.79667
C           0.14486         3.17848         2.91746
C           0.69265         2.84108         1.52511
N          -1.08368         3.94713         2.74738
C           2.05835        -2.21367         5.71072
O           1.60842        -1.80172         7.00953
O           1.29473        -3.03270         7.72262
C           3.25450        -0.46315         2.43042
H           0.74608         0.49007        -0.90667
H           0.67460         0.19954         0.83911
H           0.74233        -1.15931        -0.25607
H           2.99730         0.92794         0.06529
H           3.04484        -0.47386        -0.99133
H           3.46023        -4.21194         1.86456
H           3.03806        -0.33620         5.30710
H           0.58967         0.04361         5.74412
H           0.18451        -0.83056         4.26568
H           1.23197         0.78023         2.93385
H           1.90416         1.69398         4.31933
H          -0.55209         2.25697         4.77849
H          -0.95764         1.33811         3.32110
H           0.89010         3.79692         3.43210
H          -0.01936         2.22529         0.96688
H           1.65011         2.31480         1.57807
H           0.88263         3.74123         0.93189
H          -1.76714         3.36789         2.25844
H          -0.90109         4.73848         2.13202
H           2.97888        -2.79234         5.84444
H           1.29395        -2.86641         5.26730
H           0.96134        -2.60489         8.53159
H           4.36028        -0.31237         2.62934
H           2.98738         0.59342         2.54184

