%chk=CCC1dCC2qC1rCC2C1dCCdCCdCC1.chk
%NProcShared=20
# opt freq b3lyp/6-31g(2df,p)

Title Card Required 

0  1
C           0.97494        -0.01168         0.00249
C           2.49878         0.03835        -0.00815
C           2.99835        -1.06294         0.88591
C           3.62432        -1.10115         2.06739
C           3.36109        -2.57422         2.20424
C           2.82908        -2.58754         0.82363
C           4.25327        -3.49903         2.77926
C           2.86503        -3.32599         3.50524
C           1.47268        -2.69594         3.62004
C           0.44312        -2.84042         2.74455
C          -0.80553        -2.07928         2.70139
C          -1.03320        -0.83786         3.17015
C          -0.07883         0.00659         3.85893
C           0.91470        -0.46005         4.63259
C           1.14266        -1.92298         4.88776
H           0.56469         0.75233        -0.65937
H           0.59040         0.16843         1.01038
H           0.59713        -0.98939        -0.32110
H           2.85957         1.01011         0.33358
H           2.80932        -0.17954        -1.03182
H           4.02408        -0.36000         2.76434
H           1.80600        -2.91109         0.63660
H           3.42416        -3.12454         0.07747
H           5.18384        -3.07474         3.15531
H           4.48477        -4.34139         2.12267
H           2.75369        -4.33576         3.88201
H           0.52427        -3.54283         1.92289
H          -1.59859        -2.54063         2.11375
H          -2.00102        -0.37338         2.97743
H          -0.19663         1.08022         3.72275
H           1.60054         0.23653         5.10196
H           0.21369        -2.33937         5.31605
H           1.88918        -2.07677         5.67033

