%chk=CCCCqCrCOCC1ON1CqdOrCOC.chk
%NProcShared=20
# opt freq b3lyp/6-31g(2df,p)

Title Card Required 

0  1
C           0.90051         0.03745        -0.05291
C           2.41549         0.03272        -0.05483
C           2.97908         1.44595        -0.20391
C           4.51899         1.46367        -0.23060
C           5.06007         0.62934        -1.39442
C           5.01587         2.91104        -0.34339
O           6.44822         2.96719        -0.33605
C           6.89319         4.31398        -0.53626
C           8.37890         4.41078        -0.47686
O           9.10303         3.71624        -1.59824
N           9.10999         5.06328        -1.42937
C           9.55482         6.12386        -2.08126
O          10.25143         6.02976        -3.09584
C           9.14757         7.48930        -1.50284
O           9.66019         8.59887        -2.23831
C           9.27208         9.85061        -1.68865
H           0.52630        -0.98640         0.03928
H           0.51803         0.45700        -0.98901
H           0.51197         0.62848         0.78052
H           2.73690        -0.60263        -0.88514
H           2.79113        -0.42015         0.86972
H           2.61828         2.06707         0.62697
H           2.58831         1.90022        -1.12416
H           4.89973         1.03263         0.70459
H           4.68819         1.01704        -2.34907
H           4.76138        -0.41942        -1.31562
H           6.15246         0.63988        -1.41619
H           4.63905         3.49900         0.50189
H           4.63943         3.35632        -1.27272
H           6.48589         4.92500         0.27536
H           6.50642         4.68542        -1.49154
H           8.80029         4.27303         0.50758
H           9.51525         7.54886        -0.47315
H           8.05317         7.54393        -1.50895
H           9.70213        10.65273        -2.29732
H           9.64860         9.95430        -0.66671
H           8.18302         9.95463        -1.70213

