%chk=CCCC1CC2dCCdCCdC1CCCN2CCC.chk
%NProcShared=20
# opt freq b3lyp/6-31g(2df,p)

Title Card Required 

0  1
C           0.84696        -0.01434         0.01862
C           2.35287        -0.03738         0.08055
C           3.07876        -1.35053        -0.33004
C           4.64370        -1.18029        -0.24060
C           5.00695        -0.02537         0.71182
C           6.39937         0.41666         0.36476
C           7.23428         0.32931         1.44120
C           8.26175        -0.61606         1.25612
C           7.88462        -1.91198         1.39528
C           6.44205        -2.40717         1.25456
C           5.73178        -2.36957         0.06599
C           6.60613        -2.79129        -1.12794
C           6.76841        -1.77906        -2.25343
C           7.53737        -0.53190        -1.76733
N           6.76079         0.47907        -0.97826
C           6.21186         1.66230        -1.63461
C           6.61847         1.81779        -3.07373
C           6.04953         3.09788        -3.62450
H           0.49571         0.94552         0.42296
H           0.43267        -0.80936         0.63994
H           0.48330        -0.10241        -1.00588
H           2.58678         0.17286         1.13038
H           2.72248         0.80025        -0.53155
H           2.79939        -1.54896        -1.37934
H           2.71703        -2.19587         0.25598
H           4.81779        -0.81529        -1.25467
H           4.87596        -0.43391         1.72749
H           4.40267         0.87714         0.68314
H           6.79748         0.24337         2.43574
H           9.20444        -0.25760         0.84442
H           8.58843        -2.50991         1.96011
H           6.44303        -3.40252         1.70541
H           6.31258        -3.78539        -1.48335
H           7.63935        -2.96343        -0.78831
H           5.82393        -1.55049        -2.75778
H           7.37652        -2.27561        -3.02480
H           7.97413        -0.08655        -2.66135
H           8.42906        -0.85598        -1.22688
H           6.54859         2.53638        -1.05935
H           5.11713         1.64136        -1.55508
H           6.25458         0.96349        -3.65583
H           7.71034         1.85713        -3.15090
H           4.95776         3.08935        -3.56186
H           6.35050         3.20574        -4.66700
H           6.42615         3.95261        -3.05405

