%chk=CCCCCCdCCqNrdCC[SH]dCCdCCdO.chk
%NProcShared=20
# opt freq b3lyp/6-31g(2df,p)

Title Card Required 

0  1
C           0.90560         0.05926        -0.04137
C           2.42309         0.05088        -0.03269
C           2.94807        -0.94453         0.99742
C           4.47109        -0.95815         1.01169
C           5.00547        -1.95544         2.04416
C           6.50612        -1.95195         2.03931
C           7.27649        -2.71889         2.83023
C           8.74160        -2.73108         2.83432
N           9.40919        -1.91356         1.96913
C           9.39586        -3.54959         3.68194
C          10.89677        -3.64488         3.79279
S          11.33585        -4.80304         5.13117
C          13.12933        -4.77859         4.97553
C          13.88530        -5.67446         5.87717
C          15.22325        -5.66547         5.86965
C          15.98149        -6.54376         6.78776
O          17.20921        -6.54788         6.79493
H           0.53285         0.77363        -0.78060
H           0.51438         0.34405         0.94055
H           0.51438        -0.93182        -0.29242
H           2.79294         1.05740         0.19600
H           2.79295        -0.21211        -1.03079
H           2.57312        -1.94872         0.76574
H           2.57302        -0.67869         1.99307
H           4.84391         0.04968         1.23787
H           4.84395        -1.21896         0.01225
H           4.63505        -2.95879         1.80356
H           4.63514        -1.68075         3.03869
H           6.96084        -1.26940         1.33133
H           6.77766        -3.39077         3.52934
H           8.90927        -1.28192         1.36243
H          10.41686        -1.87322         1.97022
H           8.81466        -4.18556         4.34694
H          11.31548        -2.66551         4.04688
H          11.32911        -3.99822         2.85041
H          11.05908        -5.94862         4.54768
H          13.68336        -4.12698         4.28082
H          13.31199        -6.31125         6.54382
H          15.81993        -5.03391         5.22413
H          15.39377        -7.18920         7.46077

