%chk=CCCCNPqCSSrCqdOrO.chk
%NProcShared=20
# opt freq b3lyp/6-31g(2df,p)

Title Card Required 

0  1
C           1.02243        -0.04027        -0.08002
C           2.53641        -0.07118        -0.10282
C           3.04758        -1.40235        -0.67496
C           4.56907        -1.38806        -0.65714
N           5.22704        -2.61459        -1.10999
P           6.95403        -2.50648        -1.21541
C           7.50787        -2.45441         0.55196
S           7.22379        -0.72750         1.12229
S           7.65514        -0.73571         3.13201
C           7.45603        -4.17048        -1.73360
O           6.58929        -4.95826        -2.10042
O           8.77117        -4.47359        -1.79943
H           0.66400         0.91287         0.31960
H           0.63187        -0.84596         0.54900
H           0.62342        -0.16354        -1.09090
H           2.91603         0.07703         0.91727
H           2.91221         0.76751        -0.70245
H           2.67116        -1.54567        -1.69268
H           2.67772        -2.22752        -0.05467
H           4.81501        -1.23628         0.39234
H           4.92198        -0.52949        -1.24281
H           4.83977        -2.88778        -2.01965
H           8.59247        -2.57620         0.57319
H           7.03491        -3.20969         1.18681
H           7.09598         0.43263         3.51288
H           9.33265        -3.69941        -1.61545

