%chk=CCCCCtCCCCqNrdCqCrCO.chk
%NProcShared=20
# opt freq b3lyp/6-31g(2df,p)

Title Card Required 

0  1
C           0.99812        -0.11349         0.00015
C           2.51548        -0.10419        -0.00259
C           3.04529         1.26637        -0.40715
C           4.56564         1.27636        -0.41009
C           5.07230         2.65081        -0.81580
C           5.50691         3.82980        -1.16381
C           6.01357         5.20425        -1.56951
C           7.50779         5.23534        -1.73777
C           8.05029         6.60277        -2.13316
N           7.15784         7.64684        -2.25300
C           9.37675         6.75485        -2.33230
C          10.36876         5.62542        -2.16609
C           9.93081         8.09876        -2.73828
O          11.33910         8.07982        -2.89375
H           0.62503        -1.09931         0.29114
H           0.60695         0.12278        -0.99458
H           0.60695         0.62508         0.70714
H           2.88472        -0.86724        -0.69781
H           2.88472        -0.36740         0.99555
H           2.66981         2.03110         0.28503
H           2.66981         1.53264        -1.40365
H           4.95687         0.53383        -1.11463
H           4.95687         1.03543         0.58473
H           5.68941         5.90718        -0.79194
H           5.50429         5.47197        -2.50365
H           7.78244         4.49504        -2.50194
H           7.96868         4.92187        -0.79132
H           6.15809         7.50247        -2.20226
H           7.45711         8.54546        -2.60948
H           9.91843         4.67122        -1.88031
H          11.08673         5.86735        -1.37619
H          10.90469         5.44903        -3.10273
H           9.68500         8.85621        -1.98506
H           9.49779         8.40664        -3.69635
H          11.70863         7.87836        -2.01865

