%chk=CCCC1qCCCtNrCCCqCNrNC1.chk
%NProcShared=20
# opt freq b3lyp/6-31g(2df,p)

Title Card Required 

0  1
C           0.86624        -0.03072        -0.04047
C           2.37322        -0.12464        -0.07831
C           3.01418         1.01896        -0.87312
C           4.57937         1.07701        -0.81729
C           5.15103         0.44488        -2.11219
C           6.67193         0.46109        -2.13952
C           7.20247        -0.17105        -3.41598
N           7.64259        -0.69546        -4.47490
C           5.13165         0.31683         0.42076
C           4.84603         1.06429         1.71867
C           5.37481         2.49845         1.63859
C           6.92690         2.52591         1.57480
N           7.52789         1.79218         2.68321
N           4.72352         3.20170         0.51549
C           5.01748         2.57345        -0.76971
H           0.47876        -0.78681         0.64985
H           0.44212        -0.20060        -1.03062
H           0.54974         0.95082         0.32767
H           2.69240        -1.09275        -0.47623
H           2.67427        -0.10437         0.96753
H           2.59552         1.96798        -0.51599
H           2.68670         0.94125        -1.91905
H           4.77583         0.98641        -2.99278
H           4.79133        -0.58743        -2.21778
H           7.11443        -0.12298        -1.32990
H           7.09515         1.46680        -2.10669
H           6.21428         0.18923         0.36840
H           4.75919        -0.71331         0.45851
H           5.29368         0.50835         2.54957
H           3.78038         1.11571         1.95155
H           5.05895         3.01161         2.55384
H           7.27515         3.56310         1.57601
H           7.29687         2.07056         0.65182
H           7.25214         2.20869         3.56552
H           8.54635         1.83860         2.62209
H           5.02406         4.17499         0.49440
H           6.08347         2.70658        -0.96378
H           4.52138         3.12946        -1.57584

