%chk=CCCCC1dC2CdC2CCCCCdC1.chk
%NProcShared=20
# opt freq b3lyp/6-31g(2df,p)

Title Card Required 

0  1
C           0.79496         0.08920        -0.03099
C           2.26201         0.05549        -0.08122
C           2.63588        -0.78722        -1.35327
C           4.06247        -0.63981        -1.21516
C           5.45835        -0.62179        -1.51306
C           6.13818        -1.39331        -2.46094
C           7.11359        -2.00572        -3.16060
C           7.83498        -1.45191        -2.31030
C           7.91039        -0.61204        -1.07627
C           8.88528         0.01234        -0.14225
C           7.96516         0.63406         0.77739
C           7.84449         1.41059         1.93372
C           6.17332         0.96279         1.19769
C           5.60593         0.25837         0.02135
H           0.48415         0.67293         0.83124
H           0.46165        -0.94626         0.03992
H           0.46138         0.54083        -0.96577
H           2.68037        -0.36015         0.85752
H           2.67513         1.08422        -0.11238
H           2.37872        -0.33139        -2.30604
H           2.39626        -1.84967        -1.27343
H           4.09929        -1.21228        -0.24178
H           4.04310         0.45990        -1.31322
H           7.22823        -2.66527        -4.06844
H           7.42059        -1.30840        -0.36163
H           7.38105         0.30756        -1.41687
H           9.36360         0.87456        -0.57196
H           9.36400        -0.70677         0.49891
H           7.63038        -0.25445         1.45595
H           7.65135         1.60349         0.20190
H           8.51071         2.26506         1.63412
H           8.51109         0.81254         2.60985
H           5.53714         1.46440         1.90555
H           5.93713        -0.78509        -0.08837

