%chk=CCCOCCCqdNrOC1dCqOrCqOCrC1N.chk
%NProcShared=20
# opt freq b3lyp/6-31g(2df,p)

Title Card Required 

0  1
C           1.03636         0.06838        -0.04969
C           2.55574         0.07897        -0.04394
C           3.08188         1.34407         0.61112
O           4.51705         1.33265         0.61002
C           4.99534         2.52409         1.22767
C           6.52048         2.61882         1.27952
C           6.95253         3.94430         1.89551
N           6.11958         4.85127         2.28155
O           8.29619         4.13136         1.92428
C           8.74607         5.22157         2.45224
C           9.72144         6.10469         2.10313
O          10.51256         6.26352         1.10356
C           9.46591         7.02602         3.29229
O          10.60255         7.30079         4.14783
C          10.28457         8.11854         5.26654
C           8.49764         5.93490         3.80298
N           7.17645         6.54635         3.98162
H           0.66089        -0.84403        -0.52135
H           0.64201         0.92703        -0.60347
H           0.64189         0.11308         0.97103
H           2.93712         0.00755        -1.06882
H           2.93685        -0.79884         0.48993
H           2.71852         1.40615         1.64477
H           2.72164         2.22394         0.06262
H           4.59614         2.56508         2.24931
H           4.59960         3.37787         0.66185
H           6.92033         2.55320         0.26055
H           6.93174         1.77235         1.84039
H           5.14433         4.57762         2.24176
H          10.40079         5.52217         0.48581
H           8.99962         7.97714         2.99646
H          11.18019         8.27189         5.87154
H           9.51834         7.63395         5.87948
H           9.91413         9.08710         4.91786
H           8.84076         5.41027         4.70152
H           6.73926         6.82893         3.10173
H           7.07172         7.27568         4.67361

