%chk=CCCqCrCCqCCNCCCCNCrOCdO.chk
%NProcShared=20
# opt freq b3lyp/6-31g(2df,p)

Title Card Required 

0  1
C           0.91191         0.05510        -0.16961
C           2.44976         0.04466        -0.18775
C           2.97139        -0.50157         1.13375
C           2.44017        -1.94702         1.08139
C           4.49621        -0.45650         1.33728
C           5.00152        -0.76958         2.79425
C           4.50367        -2.11358         3.35824
C           3.02817        -2.05628         3.81818
N           2.47915        -3.41324         3.80938
C           1.03042        -3.46193         3.62329
C           0.50509        -4.85649         3.92382
C          -1.02249        -4.86287         3.89020
C          -1.54049        -6.24176         4.27267
N          -3.00038        -6.24202         4.27482
C          -3.49023        -7.56260         4.64491
O           6.45629        -0.76009         2.72786
C           7.16400        -1.01143         3.84905
O           8.39979        -1.04881         3.89053
H           0.52170         0.33028        -1.14600
H           0.53986         0.73723         0.60231
H           0.46452        -0.92237         0.04472
H           2.83695         1.04265        -0.39526
H           2.80084        -0.62725        -0.97941
H           2.53746         0.13219         1.92929
H           2.64302        -2.47728         0.15678
H           1.38127        -1.93406         1.35283
H           2.90168        -2.65548         1.73047
H           4.87408         0.53988         1.06278
H           4.96037        -1.14639         0.62300
H           4.69161         0.04226         3.46175
H           5.08880        -2.47066         4.20692
H           4.71238        -2.86560         2.57585
H           2.47378        -1.41164         3.15984
H           2.82230        -1.48799         4.72540
H           2.77620        -3.92587         4.63153
H           0.71907        -3.25014         2.59519
H           0.55684        -2.72100         4.26990
H           0.85582        -5.16731         4.91262
H           0.88992        -5.58038         3.19135
H          -1.38161        -4.58627         2.88992
H          -1.40470        -4.11001         4.59115
H          -1.16493        -6.50041         5.26992
H          -1.16018        -6.98435         3.56100
H          -3.34353        -6.00207         3.34469
H          -3.15146        -7.83513         5.64987
H          -3.14971        -8.32333         3.93492
H          -4.58335        -7.56381         4.64942
H           6.55056        -1.19331         4.73603

