%chk=CCCqdOrC1SCC1CdCCtN.chk
%NProcShared=20
# opt freq b3lyp/6-31g(2df,p)

Title Card Required 

0  1
C           1.01767         0.08806        -0.03407
C           2.52733         0.03744        -0.04690
C           3.02354        -1.32752        -0.51141
O           2.21885        -2.22484        -0.80905
C           4.54472        -1.56688        -0.62913
S           5.56409        -0.36038         0.30352
C           6.40021        -1.92445         0.63425
C           5.14246        -2.75023         0.21313
C           5.45812        -3.99675        -0.56229
C           4.48764        -4.86318        -0.89843
C           4.76373        -6.05807        -1.62130
N           5.00450        -7.03075        -2.20984
H           0.66749         1.06474         0.30769
H           0.62332        -0.68125         0.63763
H           0.62465        -0.09903        -1.03778
H           2.89186         0.23217         0.96739
H           2.92051         0.80559        -0.72272
H           4.83004        -1.59720        -1.68866
H           6.69609        -2.04016         1.68071
H           7.28730        -2.04361         0.00605
H           4.52041        -3.00995         1.08523
H           6.49329        -4.19513        -0.83363
H           3.44925        -4.68948        -0.63189

