%chk=CCdCCqCOCrCCqCrCCC.chk
%NProcShared=20
# opt freq b3lyp/6-31g(2df,p)

Title Card Required 

0  1
C           0.93616        -0.04824        -0.12570
C           2.41551        -0.01424        -0.21223
C           3.15254        -0.85467        -0.94198
C           4.66172        -0.87358        -0.83692
C           5.06095        -1.14875         0.62153
O           4.57869        -0.25252         1.61729
C           5.18891        -0.56909         2.86436
C           5.28321        -1.92790        -1.80162
C           6.84083        -1.98311        -1.83879
C           7.50130        -2.39103        -0.51241
C           7.30984        -2.99092        -2.90766
C           8.84039        -3.02945        -2.99417
C           9.33353        -4.06487        -3.96820
H           0.60055         0.68560         0.61333
H           0.59548        -1.03441         0.20294
H           0.50349         0.20343        -1.09419
H           2.90135         0.71581         0.43789
H           2.66522        -1.59312        -1.57771
H           5.03159         0.11525        -1.13976
H           6.10649        -0.94973         0.68362
H           4.83551        -2.18633         0.89817
H           4.86938         0.16876         3.59905
H           6.28293        -0.53513         2.78542
H           4.87573        -1.56830         3.17979
H           4.92409        -1.70914        -2.82072
H           4.88899        -2.92670        -1.56534
H           7.19652        -0.98507        -2.12699
H           7.01307        -3.27370        -0.08922
H           7.56812        -1.58441         0.20340
H           8.56400        -2.59346        -0.57858
H           6.89414        -2.72784        -3.88831
H           6.92628        -3.98914        -2.65776
H           9.29709        -3.32291        -2.04837
H           9.22323        -2.03202        -3.23771
H           8.98340        -5.05669        -3.66423
H          10.42757        -4.07382        -3.95525
H           8.98277        -3.84659        -4.97631

