%chk=CCdC1CCqCdOrCC1OO.chk
%NProcShared=20
# opt freq b3lyp/6-31g(2df,p)

Title Card Required 

0  1
C          -2.77442        -0.42858         0.00852
C          -1.64600         0.53989        -0.07663
C          -0.33896         0.24143         0.02174
C           0.22535        -1.14365         0.16957
C           1.68950        -0.98732        -0.22911
C           2.57017        -1.99977         0.46173
O           3.78597        -2.06039         0.28247
C           2.04293         0.43451         0.19168
C           0.77826         1.26087        -0.05763
O           0.67701         2.24887         0.97160
O          -0.34075         3.20686         0.54856
H          -3.72311         0.11540        -0.05268
H          -2.76028        -0.96360         0.96231
H          -2.74208        -1.13921        -0.82117
H          -1.94147         1.57792        -0.21448
H          -0.27369        -1.86554        -0.48593
H           0.11626        -1.48053         1.20644
H           1.80174        -1.11944        -1.31238
H           2.07866        -2.69473         1.16280
H           2.88635         0.81862        -0.39490
H           2.35434         0.48098         1.24362
H           0.82316         1.72976        -1.04839
H          -0.46506         3.62020         1.42201

