%chk=CCNCqCCqCrdOr[PH]qdOrO.chk
%NProcShared=20
# opt freq b3lyp/6-31g(2df,p)

Title Card Required 

0  1
C           0.76201         0.17566         0.28909
C           2.26752         0.22124         0.38046
N           3.02151         0.84110         1.45875
C           4.53174         0.75091         1.26548
C           5.05333         1.36979        -0.03967
C           4.78775         0.66661        -1.39004
C           4.19777        -0.73426        -1.42988
O           5.02108         1.24572        -2.43235
P           5.14174         1.63161         2.74912
O           4.57142         0.60449         3.72505
O           5.71840         2.46419         4.15168
H           0.51543        -0.36415        -0.64152
H           0.33688         1.17540         0.20105
H           0.32287        -0.38156         1.11493
H           2.52571         0.77795        -0.51817
H           2.53876        -0.83468         0.35973
H           2.81583         0.34844         2.34150
H           4.85745        -0.29102         1.35548
H           6.14403         1.45451         0.03423
H           4.66832         2.39579        -0.12151
H           4.23276        -1.18353        -0.44160
H           4.73514        -1.42091        -2.07465
H           3.16395        -0.67385        -1.79876
H           5.17694         2.92979         2.19804
H           5.55059         1.84021         4.89174

