%chk=CCOC1dCNCCdCdCCCCqCrdC1O.chk
%NProcShared=20
# opt freq b3lyp/6-31g(2df,p)

Title Card Required 

0  1
C           1.15230        -0.05287         0.09154
C           3.04811        -0.26607         0.23511
O           4.59321        -1.48774         0.91401
C           6.28760        -2.37411         1.84310
C           5.16846        -2.95202         1.03970
N           6.37341        -3.33522         0.78726
C           6.81028        -4.50147         1.41607
C           8.31359        -4.78001         0.96177
C           8.74644        -5.87711         1.45415
C           9.61448        -6.63082         1.97654
C          10.75233        -5.54836         2.57965
C          10.57749        -6.92324         3.02619
C           9.80874        -4.82864         2.94673
C          11.49570        -6.59436         3.67619
C           8.33451        -3.42749         2.37965
O           7.69685        -1.68158         1.35369
H           0.74672         0.96734        -0.25922
H           0.71966        -0.19640         1.06737
H           0.72499        -0.75803        -0.61888
H           3.02373         0.74727         0.76102
H           3.03803         0.16484        -0.91181
H           4.25367        -3.55461         1.25878
H           7.20159        -2.50030         0.48766
H           6.41555        -5.15117         0.76568
H           6.49155        -4.53659         2.49504
H           9.16690        -3.73283         0.86623
H           9.33409        -7.63189         1.93232
H          10.61838        -5.57203         4.13098
H          11.83935        -5.69468         2.30435
H          11.56872        -7.97443         2.36700
H          10.67280        -8.16090         3.86899
H          12.87830        -7.30654         4.21505
H          12.53985        -7.88646         3.48286
H          12.09054        -7.93024         4.43162
H           6.77059        -0.69125         0.70710

