%chk=CCqCCCtCCNrCOOO.chk
%NProcShared=20
# opt freq b3lyp/6-31g(2df,p)

Title Card Required 

0  1
C           0.94967         0.07142         0.00492
C           2.47437         0.12051        -0.00390
C           3.00189         1.54824        -0.27649
C           2.54762         2.11123        -1.62442
C           3.05639         3.47563        -1.84600
C           3.45846         4.59579        -2.03516
C           3.94073         5.96105        -2.27758
N           5.21790         6.17505        -1.61229
C           3.00885        -0.39747         1.33722
O           4.42673        -0.40911         1.25762
O           4.90388        -0.83705         2.55008
O           6.35019        -0.83090         2.54291
H           0.53266         0.37388        -0.95895
H           0.54931         0.73696         0.77672
H           0.59140        -0.94323         0.20277
H           2.85129        -0.53886        -0.79809
H           4.09998         1.54709        -0.25021
H           2.67528         2.21270         0.53405
H           1.45480         2.14268        -1.67002
H           2.88256         1.44269        -2.42621
H           3.21372         6.69496        -1.91273
H           4.06631         6.13382        -3.35140
H           5.08818         6.06988        -0.60771
H           5.51936         7.13465        -1.76575
H           2.65216        -1.41663         1.52862
H           2.68022         0.24931         2.16060
H           6.45570        -1.16670         3.44628

