%chk=CCqdCCqOrCCOrCC1CC1.chk
%NProcShared=20
# opt freq b3lyp/6-31g(2df,p)

Title Card Required 

0  1
C           1.04844        -0.04010         0.02529
C           2.54925         0.07813         0.07669
C           3.16639         1.22892         0.42850
C           2.48428         2.50804         0.77681
O           1.69178         2.30183         1.94134
C           3.48714         3.61555         1.06177
C           2.74765         4.89412         1.41524
O           3.68637         5.92392         1.68478
C           3.32233        -1.16892        -0.30885
C           4.82393        -1.03305        -0.29562
C           5.68257        -1.71985        -1.32137
C           5.51219        -0.22846        -1.37583
H           0.53398         0.89633         0.25894
H           0.70222        -0.78362         0.74915
H           0.71972        -0.32864        -0.97715
H           4.25091         1.27184         0.43682
H           1.83383         2.81181        -0.05195
H           2.25651         1.85898         2.59729
H           4.14437         3.78577         0.19909
H           4.14382         3.33692         1.89735
H           2.11405         4.76121         2.29831
H           2.11119         5.21040         0.58277
H           4.20674         5.63900         2.45530
H           2.99407        -1.48568        -1.30758
H           3.05064        -1.97758         0.38167
H           5.21105        -0.94601         0.71491
H           5.19832        -2.30924        -2.09019
H           6.63797        -2.11077        -0.99167
H           4.89987         0.19450        -2.16584
H           6.33784         0.40818        -1.07745

