%chk=CCqOrCqdCdOrC1CCCCqNNPCqOrOOOrCC1.chk
%NProcShared=20
# opt freq b3lyp/6-31g(2df,p)

Title Card Required 

0  1
C           1.05462        -0.06733        -0.08369
C           2.57823        -0.04135         0.01297
O           3.08816         0.92488        -0.90032
C           3.04787         0.28093         1.41046
C           2.20057         0.49821         2.37776
O           1.43864         0.68697         3.25435
C           4.54801         0.34286         1.65510
C           5.05278         1.79363         1.58469
C           4.99593         2.56241         2.90711
C           6.26795         2.39112         3.73968
C           6.45418         1.01778         4.42163
N           7.81255         1.02150         5.00327
N           8.12016        -0.21254         5.69302
P           9.76973        -0.14771         6.12226
C          10.00010        -1.81796         7.00667
O           9.84104        -2.94029         6.13469
O          11.30180        -1.82333         7.59555
O          11.50712        -3.09706         8.23772
O          12.85697        -3.12811         8.76548
C           6.29537        -0.16420         3.44770
C           4.86854        -0.35713         2.98017
H           0.71981        -0.27538        -1.10177
H           0.63587         0.90819         0.19492
H           0.63822        -0.82798         0.58688
H           2.97226        -1.01618        -0.29808
H           2.71834         1.79236        -0.66158
H           5.05848        -0.21957         0.85844
H           4.47101         2.34697         0.83822
H           6.08358         1.79417         1.20680
H           4.10989         2.30632         3.49690
H           4.90338         3.62808         2.66388
H           6.26315         3.16996         4.51474
H           7.13247         2.60852         3.09737
H           5.71324         0.93935         5.22986
H           7.89579         1.80764         5.65343
H           8.02793        -1.01160         5.05692
H           9.71887         0.68797         7.26068
H           9.25383        -1.92300         7.80569
H          10.45146        -2.74186         5.40620
H          12.80785        -4.02847         9.12183
H           6.52706        -1.10054         3.96046
H           6.99431        -0.07739         2.60834
H           4.19622        -0.03854         3.78630
H           4.68408        -1.43218         2.85336

