%chk=CdC1CCCCCCqCrCCCCC1C.chk
%NProcShared=20
# opt freq b3lyp/6-31g(2df,p)

Title Card Required 

0  1
C           1.06484         0.04947         0.02849
C           2.41962         0.05793         0.02051
C           3.22500        -1.22365         0.02719
C           2.87877        -2.15100         1.19744
C           4.11297        -2.52820         2.03535
C           3.88743        -2.27281         3.52676
C           4.85069        -1.21938         4.10243
C           4.20341         0.06090         4.70350
C           2.67632         0.06088         4.63587
C           4.85114         1.34229         4.10555
C           3.88812         2.39640         3.53165
C           4.11176         2.64909         2.04042
C           2.87379         2.26905         1.20616
C           3.22964         1.34506         0.02414
C           3.08887         2.08101        -1.30451
H           0.50305        -0.87662         0.03981
H           0.49454         0.97060         0.04286
H           4.29237        -0.97766         0.04952
H           3.07716        -1.74642        -0.92478
H           2.43371        -3.07133         0.79984
H           2.09927        -1.69960         1.82161
H           5.00822        -2.00757         1.68227
H           4.31816        -3.59564         1.89866
H           4.00763        -3.20471         4.08947
H           2.83931        -2.02994         3.67655
H           5.60913        -0.95280         3.35715
H           5.43792        -1.70351         4.89611
H           4.46256         0.05997         5.77299
H           2.35017         0.06107         3.58776
H           2.24399         0.92878         5.13966
H           2.24429        -0.80750         5.13908
H           5.61016         1.07698         3.36029
H           5.43785         1.82544         4.90009
H           4.00914         3.32881         4.09295
H           2.84006         2.15427         3.68273
H           5.00749         2.12940         1.68703
H           4.31736         3.71598         1.89980
H           2.40994         3.19557         0.84475
H           2.11041         1.79529         1.83361
H           4.28781         1.07049         0.10245
H           2.05757         2.40636        -1.47538
H           3.38845         1.43534        -2.13644
H           3.73196         2.96691        -1.31419

