%chk=CdCCCOCCCqCdOrCOC1dCCC1.chk
%NProcShared=20
# opt freq b3lyp/6-31g(2df,p)

Title Card Required 

0  1
C           0.93160        -0.08780         0.00727
C           2.26897        -0.06353         0.00053
C           3.05069         1.16445        -0.36793
C           4.54793         0.91610        -0.27990
O           5.25641         2.11985        -0.59822
C           6.65649         1.84909        -0.55988
C           7.45365         3.08542        -0.96814
C           8.97260         2.84778        -0.90534
C           9.38329         1.71349        -1.83223
O           8.99957         0.55009        -1.69700
C           9.75726         4.12306        -1.27600
O          11.15374         3.83608        -1.20775
C          11.93699         4.79889        -1.52597
C          13.09788         4.85870        -2.21281
C          13.31090         6.33092        -1.99751
C          12.00538         6.29309        -1.18302
H           0.39185        -0.98855         0.27936
H           0.35508         0.79229        -0.25959
H           2.81507        -0.96543         0.27239
H           2.78851         1.99490         0.29789
H           2.79988         1.48040        -1.38792
H           4.83354         0.12017        -0.98102
H           4.82186         0.60225         0.73483
H           6.83735         1.02651        -1.25356
H           6.93540         1.54006         0.45379
H           7.17531         3.91711        -0.30761
H           7.14927         3.39063        -1.97741
H           9.26276         2.53845         0.10758
H          10.04742         1.96818        -2.67103
H           9.49888         4.92883        -0.57777
H           9.49454         4.43426        -2.29582
H          13.69184         4.11382        -2.73561
H          13.27266         6.95982        -2.89409
H          14.20944         6.60570        -1.43162
H          11.21592         6.93195        -1.59231
H          12.14069         6.54499        -0.12407

