%chk=CdCCC1dCCCCdCCdCCqCrC1.chk
%NProcShared=20
# opt freq b3lyp/6-31g(2df,p)

Title Card Required 

0  1
C           1.19087         0.07581        -0.04138
C           2.62936         0.06503        -0.05573
C           4.18124         0.81790         0.86964
C           6.36888         0.77759         0.85884
C           5.71556         1.47976         1.85420
C           6.99481         1.45992         1.66225
C           7.69393         2.20587         2.59784
C           9.05610         2.13572         2.45531
C           9.86794         2.71388         3.20226
C          11.02793         2.16698         2.50253
C          11.91544         2.78539         3.33432
C          10.98358         1.63423         2.09720
C          12.84799         2.58623         3.11627
C           8.68252         0.91215         1.12979
H           0.54892        -0.51143        -0.77061
H           0.53594         0.63139         0.64885
H           2.97468        -0.56075        -0.83211
H           3.23049         0.53866         1.90011
H           3.22955         1.87697         0.82472
H           4.98376         2.05150         2.33323
H           7.28028         2.04328         0.38524
H           7.26136         0.08854         2.01154
H           7.50310         1.68676         3.47820
H           7.49646         3.17256         2.28368
H           9.83612         1.43817         1.43605
H           9.75503         3.31160         3.98436
H          12.10258         1.30929         1.43564
H          11.89365         3.55670         4.28599
H          12.63107         1.91548         2.28776
H          13.39657         3.53914         4.27384
H          14.10253         3.51881         3.20474
H          14.10949         2.50335         4.02851
H           7.78974        -0.12392         0.55460
H           7.81089         0.61195        -0.05857

