%chk=CdCCCCC1OCdC1CdCCCCCC.chk
%NProcShared=20
# opt freq b3lyp/6-31g(2df,p)

Title Card Required 

0  1
C           0.92543        -0.08401        -0.05137
C           2.26191        -0.05983        -0.02973
C           3.02741         0.69726         1.01323
C           4.52250         0.55367         0.78557
C           5.32473         1.29902         1.85396
C           6.83167         1.11013         1.69552
O           7.34806         1.64265         0.44933
C           7.75324         0.48028         0.05779
C           7.31531        -0.19535         1.14496
C           7.23975        -1.59866         1.58501
C           6.66521        -1.92649         2.75199
C           6.54065        -3.33682         3.23352
C           5.86765        -3.39574         4.60478
C           5.78053        -4.83603         5.09632
C           5.11569        -4.90616         6.46669
C           5.03463        -6.34288         6.94944
H           0.39145        -0.63578        -0.81669
H           0.34746         0.44957         0.69613
H           2.81698        -0.60695        -0.79046
H           2.77579         0.30499         2.00625
H           2.75613         1.75783         0.98099
H           4.79303         0.92117        -0.21205
H           4.76303        -0.51600         0.80354
H           5.02474         0.93234         2.84394
H           5.08009         2.36734         1.83084
H           7.38539         1.50437         2.55758
H           8.22283         0.14338        -0.86469
H           7.62883        -2.36252         0.91894
H           6.25582        -1.14868         3.39259
H           7.54070        -3.77982         3.30109
H           5.95337        -3.92143         2.51540
H           4.85997        -2.96344         4.54878
H           6.43458        -2.79423         5.32711
H           6.78783        -5.26685         5.15176
H           5.21086        -5.43701         4.37696
H           4.10684        -4.48032         6.41523
H           5.68451        -4.30949         7.18940
H           4.44912        -6.95318         6.25440
H           4.55716        -6.38751         7.93220
H           6.03431        -6.78126         7.03248

