%chk=CdCCqNrqNrC1CCCdCqCCrCC1.chk
%NProcShared=20
# opt freq b3lyp/6-31g(2df,p)

Title Card Required 

0  1
C           0.86283        -0.09944         0.08411
C           2.20664        -0.00835         0.10107
C           3.02284         1.10226        -0.50726
N           2.64929         1.33212        -1.88207
N           2.66371         2.33129         0.15920
C           4.56447         0.84404        -0.41128
C           4.95735        -0.50708        -1.05570
C           6.35008        -1.00068        -0.69108
C           7.48561        -0.28293        -1.34524
C           7.70678         1.04502        -1.38441
C           8.96172         1.53767        -2.08168
C           9.15914         3.04764        -2.10030
C           6.81976         2.04922        -0.69703
C           5.35017         2.00367        -1.05664
H           0.36242        -0.93626         0.55208
H           0.25578         0.67569        -0.36510
H           2.74587        -0.79482         0.62169
H           1.64342         1.40375        -1.96688
H           2.90571         0.50494        -2.42024
H           1.67172         2.49273         0.03280
H           3.10369         3.09923        -0.33653
H           4.83157         0.80499         0.65583
H           4.84535        -0.46336        -2.14600
H           4.27532        -1.29386        -0.71924
H           6.40378        -2.04945        -1.01374
H           6.48729        -1.01316         0.39593
H           8.22113        -0.94283        -1.80517
H           8.94995         1.18286        -3.12031
H           9.83278         1.08486        -1.59166
H           8.33341         3.54087        -2.62648
H          10.08463         3.31659        -2.61262
H           9.21711         3.44349        -1.07950
H           7.10700         3.06994        -0.95582
H           6.96412         1.98661         0.38682
H           5.22162         2.00840        -2.14709
H           4.95798         2.96382        -0.70653

