%chk=CdCNqCrC[SH]qCOCrC1CdCCdC1.chk
%NProcShared=20
# opt freq b3lyp/6-31g(2df,p)

Title Card Required 

0  1
C           1.00111         0.06340        -0.16715
C           2.32285        -0.05525        -0.02672
N           2.99911        -0.99266         0.75230
C           2.22417        -1.99443         1.47002
C           4.46943        -1.20847         0.68965
S           5.15414        -2.59547         1.62844
C           4.67934        -4.17128         0.91669
O           3.32349        -4.48461         1.17903
C           2.75228        -5.46792         0.33591
C           6.92071        -2.49871         1.59984
C           7.45314        -3.34933         2.72008
C           8.23326        -4.32387         2.22198
C           8.25167        -4.22446         0.78361
C           7.48921        -3.18885         0.39718
H           0.53915         0.84151        -0.76379
H           0.29754        -0.61383         0.31180
H           2.97919         0.64174        -0.54916
H           1.18079        -1.73928         1.65631
H           2.63990        -2.19769         2.45837
H           2.15404        -2.85008         0.81432
H           4.95204        -0.31623         1.11190
H           4.81562        -1.31032        -0.34536
H           4.73100        -2.50184         2.89948
H           5.27238        -4.93830         1.41750
H           4.90392        -4.14159        -0.15315
H           1.66386        -5.33317         0.35135
H           2.98187        -6.45079         0.74674
H           3.08312        -5.38660        -0.70421
H           7.24699        -1.46102         1.68784
H           7.26333        -3.18725         3.77099
H           8.76657        -5.07431         2.78801
H           8.79725        -4.90069         0.14133
H           7.32816        -2.88707        -0.62616

