%chk=CdCNCCC1dCCdCqCCCrC1CC.chk
%NProcShared=20
# opt freq b3lyp/6-31g(2df,p)

Title Card Required 

0  1
C           0.99580         0.04616         0.11258
C           2.33829         0.08155         0.14402
N           3.09324         0.97639         0.83705
C           4.54681         0.99861         0.84923
C           5.07409         2.14453         1.70962
C           6.57151         2.16612         1.73320
C           7.36571         2.86566         0.90757
C           8.74190         2.62650         1.25108
C           8.83437         1.79524         2.30933
C          10.15856         1.31575         2.87034
C          10.14551         0.17129         3.88501
C          11.45165        -0.16078         4.56363
C           7.41791         1.41585         2.75867
C           6.97658         1.88252         4.16421
C           7.72118         1.23943         5.29682
H           0.48145        -0.70756        -0.46802
H           0.40318         0.76276         0.66282
H           2.90955        -0.65134        -0.41903
H           2.59713         1.68792         1.36711
H           4.91397         1.11475        -0.17712
H           4.91889         0.04206         1.23403
H           4.66541         2.06719         2.72266
H           4.69661         3.10234         1.32799
H           7.03891         3.50264         0.09800
H           9.56298         3.06577         0.70188
H          10.65906         2.18563         3.31657
H          10.78806         0.98822         2.03358
H           9.60029        -0.70234         3.51691
H           9.64598         0.47930         4.77027
H          12.14389        -0.66666         3.89907
H          11.23162        -0.80852         5.42539
H          11.89944         0.75121         4.97635
H           7.27336         0.33538         2.62703
H           5.91959         1.65977         4.33002
H           7.11149         2.96626         4.25340
H           7.80653         0.15865         5.11425
H           7.29042         1.35723         6.28842
H           8.66848         1.78175         5.36068

