%chk=CdNCCqCrdNNdCqCrCqdOrOCC.chk
%NProcShared=20
# opt freq b3lyp/6-31g(2df,p)

Title Card Required 

0  1
C           1.09687         0.04212         0.06600
N           2.37617         0.10183         0.02498
C           3.11287        -0.94698         0.74551
C           4.63471        -0.73238         0.59808
C           5.13682         0.44625        -0.21163
N           5.44491        -1.58233         1.18200
N           6.82039        -1.31141         0.99587
C           7.64693        -2.14961         1.57171
C           7.22029        -3.34201         2.39088
C           9.18053        -1.90352         1.40265
O           9.61309        -0.95962         0.75420
O           9.95876        -2.82274         2.03415
C          11.38593        -2.60499         1.88455
C          12.18296        -3.67667         2.62079
H           0.50646         0.81118        -0.46233
H           0.52478        -0.73427         0.59938
H           2.86341        -1.93511         0.34122
H           2.86341        -0.92408         1.81291
H           4.33253         1.05319        -0.62859
H           5.73790         0.07985        -1.04725
H           5.73790         1.09481         0.43014
H           6.13290        -3.43166         2.45247
H           7.60341        -3.24657         3.40995
H           7.60341        -4.25901         1.93623
H          11.65717        -1.62435         2.29466
H          11.65717        -2.63601         0.82207
H          11.94957        -3.67599         3.69002
H          13.26225        -3.51260         2.50808
H          11.94957        -4.67449         2.23659

