%chk=CN1C[N]SCdC1SNNCO.chk
%NProcShared=20
# opt freq b3lyp/6-31g(2df,p)

Title Card Required 

0  2
C           1.07562         0.03011         0.05218
N           2.53290        -0.03766         0.08624
C           3.18104         1.27390         0.01486
N           4.62043         1.39584         0.13911
S           5.63540         0.05714        -0.00498
C           4.57383        -1.29708         0.00993
C           3.22427        -1.25787         0.04473
S           2.30166        -2.81061         0.02516
N           3.42256        -4.02905         0.09650
N           2.72017        -5.29877         0.10868
C           3.67427        -6.38809         0.05972
O           2.96749        -7.61426         0.07513
H           0.71009         1.06355         0.04625
H           0.64935        -0.45409         0.93688
H           0.68176        -0.45043        -0.85033
H           2.74604         1.87809         0.82453
H           2.84582         1.76250        -0.91086
H           5.10552        -2.23323        -0.02517
H           3.99174        -3.90794         0.93967
H           2.14598        -5.35286        -0.73595
H           4.32940        -6.37482         0.93695
H           4.28924        -6.35916        -0.84479
H           2.39064        -7.54541         0.85446

