%chk=Nc1ccn2c1CdCCdCCdCCdCCdC2.chk
%NProcShared=20
# opt freq b3lyp/6-31g(2df,p)

Title Card Required 

0  1
N           2.27963        -1.46295         0.09263
C           3.87079        -2.91884         0.15908
C           3.52103        -0.65455         0.09533
C           4.81610        -0.71163         0.11946
N           4.92283        -2.74664         0.17914
C           5.26965        -4.98369         0.34260
C           6.54652        -7.17707         0.63593
C           8.10953        -8.67823         0.32628
C           6.94695        -8.16563        -0.10436
C           8.72100        -8.12060         0.07019
C           7.72498        -6.81012        -0.28810
C           7.98321        -5.64379         0.11445
C           6.88212        -5.24142         0.06107
C           6.87112        -3.91106         0.09467
C           5.83859        -3.08150         0.04533
C           5.86971        -1.77612        -0.05097
H           1.34564        -0.07643         0.07459
H           0.78781        -1.09013         0.07363
H           3.09951         1.08203         0.06309
H           5.36412         0.83194         0.09273
H           7.51447        -9.04875         0.36727
H           9.59804        -9.77993         0.12722
H           6.82844        -9.95718         0.06366
H           9.78011        -7.99566         0.12951
H           5.84547        -7.28216        -0.38088
H           8.84957        -5.76746         0.13319
H           5.65102        -6.20393         0.06737
H           7.71647        -3.48010         0.11101
H           4.45842        -4.04853        -0.04477
H           6.69406        -1.24662         0.16898

