%chk=NCC1dNCqCNrCCCCqOrCC1.chk
%NProcShared=20
# opt freq b3lyp/6-31g(2df,p)

Title Card Required 

0  1
N           0.83018         0.14430         0.12200
C           2.28498         0.14028         0.10838
C           2.89127         1.42938         0.71761
N           2.61006         2.60425         0.22033
C           3.27827         3.81463         0.75262
C           2.30198         5.01610         0.72904
N           2.92688         6.20807         1.32533
C           4.54430         4.15987        -0.05684
C           5.77577         3.31203         0.26890
C           5.96261         2.14338        -0.69104
C           5.42213         0.76424        -0.31685
O           6.29524        -0.24018        -0.83909
C           5.15251         0.44533         1.16047
C           3.95909         1.18209         1.77458
H           0.51804        -0.71900        -0.32591
H           0.52935         0.89748        -0.49905
H           2.62209         0.01989        -0.92589
H           2.64662        -0.72663         0.67356
H           3.52562         3.70881         1.81057
H           1.40390         4.76680         1.30400
H           1.99155         5.24363        -0.29606
H           3.21788         6.00220         2.28015
H           2.25744         6.97109         1.37194
H           4.84434         5.19463         0.15253
H           4.32413         4.14177        -1.13116
H           5.83034         3.03865         1.32485
H           6.65198         3.96164         0.13687
H           7.02936         2.06095        -0.92031
H           5.49815         2.40738        -1.65141
H           4.52051         0.62452        -0.90630
H           7.17974        -0.08398        -0.47078
H           6.05440         0.63147         1.75621
H           4.97310        -0.63390         1.26122
H           4.31289         2.08626         2.25693
H           3.51331         0.60578         2.59270

