%chk=NdCqOrC1CdCCqOrCCCS1.chk
%NProcShared=20
# opt freq b3lyp/6-31g(2df,p)

Title Card Required 

0  1
N           0.98130         0.10922        -0.33085
C           2.27228         0.13113        -0.23962
O           2.99880        -0.61638        -1.08137
C           3.07786         0.90820         0.82009
C           2.22277         1.78134         1.73349
C           1.93673         1.75574         3.05562
C           2.37079         0.75122         4.09338
O           2.20123         1.31296         5.39348
C           1.55933        -0.54882         3.99182
C           1.59151        -1.17947         2.60374
C           3.00048        -1.57821         2.15970
S           4.18050        -0.25380         1.70237
H           0.64794        -0.53660        -1.03982
H           2.45049        -1.14127        -1.68020
H           3.74125         1.58673         0.26974
H           1.69163         2.54581         1.16184
H           1.23036         2.50364         3.41484
H           3.44022         0.55442         4.03498
H           1.25287         1.44580         5.54238
H           0.51307        -0.35666         4.26589
H           1.92494        -1.27772         4.72409
H           1.09290        -0.50356         1.91494
H           0.94974        -2.06675         2.58044
H           2.94350        -2.25954         1.30653
H           3.47286        -2.13441         2.97639

