%chk=OC[SH]dCC1CdCqCdCCdSrC1.chk
%NProcShared=20
# opt freq b3lyp/6-31g(2df,p)

Title Card Required 

0  1
O           0.95285        -0.05726         0.12299
C           2.36412        -0.00382         0.03272
S           2.75939         1.36531        -1.06932
C           4.54699         1.29338        -0.93147
C           5.41479         2.38187        -1.60520
C           4.79390         3.11751        -2.78389
C           4.90784         4.33109        -2.20533
C           4.58297         5.71933        -2.62535
C           4.78604         6.75378        -1.79425
C           4.45477         8.14210        -2.19049
S           4.68371         9.46823        -1.18845
C           5.46474         3.76292        -0.91573
H           0.72028        -0.85820         0.61854
H           2.73773        -0.93855        -0.39418
H           2.78387         0.15410         1.03023
H           2.50104         2.38759        -0.28344
H           5.06326         0.49221        -0.37814
H           6.41421         1.97879        -1.82414
H           4.43936         2.77189        -3.75057
H           4.17025         5.85456        -3.62088
H           5.19135         6.60927        -0.79903
H           4.03793         8.26482        -3.20419
H           4.81365         3.86497        -0.03967
H           6.47171         4.08852        -0.63420

