%chk=OCCdCC1dCNdCC2dCC2dCCdCN1.chk
%NProcShared=20
# opt freq b3lyp/6-31g(2df,p)

Title Card Required 

0  1
O           1.11839         0.10865        -0.06106
C           2.55006         0.15293        -0.13860
C           2.91446         0.89951        -1.44602
C           4.13510         1.18557        -1.94698
C           4.71182         1.91414        -3.22285
C           6.06049         1.82887        -3.07353
N           6.82437         2.35435        -3.99377
C           8.07835         2.43166        -4.12914
C           8.47956         3.11884        -5.33255
C           9.26278         3.60276        -6.17998
C           7.88089         3.79871        -6.52313
C           6.56162         3.67804        -6.31183
C           5.18272         3.86553        -6.64016
C           4.18196         3.37897        -5.78809
N           3.97027         2.60186        -4.42720
H           0.86544        -0.35800         0.75614
H           2.89667        -0.89011        -0.10444
H           2.89667         0.65358         0.77706
H           2.06145         1.22396        -2.01420
H           4.92623         0.79792        -1.26812
H           6.59602         1.36080        -2.25385
H           8.83868         2.04538        -3.45270
H          10.32904         3.59497        -6.16634
H           6.25761         3.18633        -5.45073
H           5.01884         4.40594        -7.58653
H           3.18417         3.61609        -6.20333
H           2.96643         2.51032        -4.26690

