%chk=OdC1CdCC2dCCN2C2CCC1S2.chk
%NProcShared=20
# opt freq b3lyp/6-31g(2df,p)

Title Card Required 

0  1
O           1.01729        -0.09397         0.12298
C           2.24163         0.12277         0.10111
C           2.99932        -0.20957        -1.12673
C           2.89073         0.60389        -2.18091
C           2.49662         2.01538        -2.09262
C           1.42654         2.73412        -2.51269
C           2.30160         3.94980        -2.19847
N           2.95315         2.99389        -1.34118
C           2.86979         3.14716         0.13145
C           4.31116         2.66745         0.44966
C           4.39357         1.20787         0.90463
C           2.99258         0.76097         1.26567
S           2.25978         2.36720         1.64350
H           3.64213        -1.07460        -1.13293
H           3.50887         0.41041        -3.05583
H           0.48150         2.45741        -2.95414
H           1.94621         4.84765        -1.69148
H           3.04043         4.24468        -2.96495
H           1.89712         2.66521        -0.00978
H           4.75016         3.31786         1.21669
H           4.98173         2.78244        -0.41586
H           5.07591         1.12706         1.75687
H           4.85467         0.59435         0.12537
H           2.97226         0.09258         2.13064

