%chk=OdC1SCdC2NdCCC1N1CCN21.chk
%NProcShared=20
# opt freq b3lyp/6-31g(2df,p)

Title Card Required 

0  1
O           1.12045         0.02644        -0.34018
C           2.20258         0.67221        -0.37820
S           2.88705         1.25046         1.20067
C           3.60771         2.61681         0.44518
C           4.65258         2.52679        -0.41903
N           5.76633         1.70962        -0.36728
C           5.65713         0.56708        -0.97465
C           4.37026        -0.17959        -1.06258
C           3.13368         0.71911        -1.63268
N           3.50648         2.11980        -2.43008
C           2.80143         3.33254        -2.97559
C           3.65675         4.17869        -2.01256
N           4.38024         2.97603        -1.69121
H           2.77312         3.25345         0.15085
H           6.55754         0.02100        -1.31398
H           4.26666        -0.50757        -0.00102
H           4.51310        -1.16384        -1.53103
H           2.67161         0.04920        -2.37613
H           1.73514         3.58657        -2.91127
H           3.13846         3.71612        -3.96852
H           3.09813         4.68703        -1.21692
H           4.35569         4.93373        -2.40584

