%chk=OdCC1CqdOrOCqCCOrCdC1CO.chk
%NProcShared=20
# opt freq b3lyp/6-31g(2df,p)

Title Card Required 

0  1
O           0.82382         0.15554        -0.02881
C           2.05056         0.10021        -0.01518
C           2.86474        -0.88448         0.80858
C           4.31614        -0.63050         0.46758
O           4.82429         0.47592         0.66879
O           5.01836        -1.57787        -0.16687
C           4.59211        -2.93752        -0.35688
C           5.53782        -3.83418         0.43393
C           6.98762        -3.53909         0.08563
O           7.83360        -4.41889         0.80909
C           3.18822        -3.20953         0.05253
C           2.37417        -2.29353         0.59591
C           0.97668        -2.59785         1.08381
O           0.65143        -3.96320         0.86523
H           2.63230         0.80420        -0.63588
H           2.76915        -0.64282         1.87542
H           4.68470        -3.14055        -1.42956
H           5.31410        -4.89304         0.24991
H           5.39868        -3.67904         1.51303
H           7.26461        -2.51016         0.33787
H           7.16168        -3.68873        -0.98426
H           7.71314        -4.22280         1.75465
H           2.85948        -4.24023        -0.07475
H           0.22344        -2.00461         0.56366
H           0.89823        -2.39617         2.15675
H           0.64543        -4.08670        -0.09959

