%chk=C.CCCCCCqCrqCCOCCrCOC.chk
%NProcShared=20
# opt freq b3lyp/6-31g(2df,p)

Title Card Required 

0  1
C          -0.46854         0.90253         0.39707
C           1.57663        -0.52647        -0.55308
C           2.97520        -0.35456        -0.13606
C           3.14999        -1.57544         0.74845
C           4.62118        -1.57605         0.83159
C           5.19419        -2.65365         1.64041
C           6.72623        -2.51423         1.60302
C           7.24139        -2.62011         0.14355
C           7.25996        -1.19027         2.28216
C           6.90244         0.11960         1.57618
O           7.46396         1.31900         2.07953
C           6.76991         2.40013         1.41748
C           7.17885         3.68060         2.07951
C           7.19753        -3.73725         2.38913
O           8.61164        -3.76715         2.39787
C           9.07284        -4.89768         3.10879
H           0.57152         1.23127         0.52144
H          -0.63505        -0.18043         0.49167
H          -0.75572         1.16536        -0.62308
H          -0.97184         1.37600         1.22248
H           1.32355         0.36323        -1.12288
H           1.10107        -0.66709         0.41832
H           1.36345        -1.41800        -1.12385
H           3.13738         0.57314         0.43410
H           3.60309        -0.30592        -1.02682
H           2.76490        -2.49772         0.33066
H           2.72308        -1.41799         1.74685
H           4.71773        -0.66304         1.36613
H           5.04015        -1.49729        -0.16652
H           4.85761        -3.61536         1.23077
H           4.81001        -2.58786         2.66667
H           6.93773        -1.78351        -0.49280
H           6.85754        -3.52618        -0.34023
H           8.33230        -2.63548         0.10617
H           8.34857        -1.23465         2.37167
H           6.87216        -1.13969         3.30903
H           5.87438         0.33037         1.78697
H           7.08682         0.06887         0.50029
H           5.67378         2.29705         1.49056
H           7.03591         2.39101         0.35440
H           6.80805         3.69635         3.10939
H           6.77426         4.53878         1.53910
H           8.26810         3.73582         2.11591
H           6.81079        -4.65386         1.91964
H           6.81077        -3.69624         3.41619
H          10.16208        -4.87645         3.09392
H           8.72033        -5.81293         2.62441
H           8.72127        -4.85526         4.14342

