%chk=CC1CCqCCCCqdNrOrC1O.chk
%NProcShared=20
# opt freq b3lyp/6-31g(2df,p)

Title Card Required 

0  1
C           0.91428         0.08122        -0.01854
C           2.42661         0.08365        -0.02284
C           3.11122         1.13714         0.88121
C           4.19592         0.07659         1.19373
C           5.44330         0.12941         0.30832
C           6.40722        -0.95918         0.76352
C           7.66251        -1.04456        -0.09165
C           8.59241        -2.13447         0.37768
N           8.40180        -2.93843         1.36403
O           9.72744        -2.26574        -0.31748
C           3.12409        -1.00413         0.84088
O           3.55753        -2.18781         0.14476
H           0.53245         0.87567        -0.66689
H           0.51332         0.23970         0.98749
H           0.53196        -0.87400        -0.39085
H           2.80456         0.10067        -1.05492
H           2.52223         1.41931         1.76394
H           3.45115         2.05216         0.38969
H           4.47695         0.08944         2.25606
H           5.92507         1.10927         0.39644
H           5.18419        -0.00576        -0.74826
H           5.90559        -1.93292         0.74930
H           6.68048        -0.77498         1.81014
H           8.19722        -0.08847        -0.06094
H           7.38994        -1.24591        -1.13491
H           7.51081        -2.77449         1.83326
H           9.81192        -1.63833        -1.04936
H           2.53690        -1.30069         1.71938
H           4.07433        -1.88016        -0.61845

