%chk=CC1CCCCCCCqCrqCrCCN1.chk
%NProcShared=20
# opt freq b3lyp/6-31g(2df,p)

Title Card Required 

0  1
C           0.95858        -0.02374         0.02298
C           2.48557        -0.06850         0.03737
C           2.98263        -1.44961        -0.45553
C           4.35205        -1.80874         0.13970
C           5.48804        -1.74054        -0.88465
C           6.87277        -1.53693        -0.25151
C           7.00871        -0.20928         0.49414
C           6.80420         1.02621        -0.39511
C           6.11950         2.26172         0.27586
C           7.13748         3.42815         0.23781
C           5.78229         2.04474         1.76410
C           4.85357         2.70484        -0.54688
C           3.47851         2.17980        -0.06824
N           3.03507         0.99922        -0.81058
H           0.55683        -0.81234         0.67147
H           0.55459        -0.17942        -0.98204
H           0.58499         0.93138         0.40753
H           2.79434         0.05005         1.08162
H           3.00423        -1.48657        -1.55234
H           2.26946        -2.22219        -0.14465
H           4.31200        -2.83170         0.53295
H           4.54233        -1.17853         1.01121
H           5.29154        -0.95575        -1.61857
H           5.49906        -2.67599        -1.45526
H           7.64509        -1.59871        -1.02587
H           7.06451        -2.35059         0.45909
H           7.99515        -0.14417         0.96906
H           6.30584        -0.25056         1.32110
H           6.26379         0.76909        -1.30871
H           7.79820         1.30685        -0.77510
H           8.04572         3.16916         0.79519
H           6.71778         4.33001         0.69836
H           7.42988         3.67909        -0.78742
H           6.68143         1.82413         2.34939
H           5.08962         1.21050         1.91487
H           5.31189         2.93251         2.19799
H           4.99411         2.46976        -1.61250
H           4.79121         3.80131        -0.53298
H           2.73925         2.97428        -0.22075
H           3.46932         2.01566         1.00776
H           3.76387         0.65595        -1.41925

