%chk=CC1CCCtCCCqPCCOrO1.chk
%NProcShared=20
# opt freq b3lyp/6-31g(2df,p)

Title Card Required 

0  1
C           1.63618        -0.78266         0.43990
C           3.35416        -1.67075         0.85462
C           3.23360        -2.06583        -0.52166
C           4.59672        -1.48319        -0.32410
C           5.10338        -2.87987        -0.64501
C           5.53799        -4.07794        -0.92028
C           5.65725        -5.40423        -0.82633
C           6.01493        -4.51272         0.76787
P           7.25435        -6.43604        -0.00361
C           9.31041        -7.26436         0.10142
C           9.85887        -8.80185        -0.41006
O          11.16065        -9.11709         0.21042
O           4.36432        -3.30113         1.18742
H           1.27904        -0.75386        -0.65335
H           1.52733         0.38414         0.50534
H           0.79540        -1.13269         1.00958
H           3.66183        -0.36889         0.56280
H           2.72237        -1.63972        -1.39400
H           2.54564        -2.82474        -0.10339
H           5.27412        -1.11012         0.48829
H           4.87589        -0.86397        -1.19687
H           6.10627        -5.39398        -1.89612
H           4.83280        -6.11418        -0.79076
H           6.94648        -3.88567         0.65431
H           7.49005        -6.68022        -1.57689
H           9.41821        -7.32459         1.17364
H          10.05333        -6.60987        -0.38361
H          10.06183        -8.95455        -1.48974
H           9.24012        -9.64569        -0.08218
H          11.87896        -8.57337        -0.16386

