%chk=Cc1ccccnccccncccc[nH]n1.chk
%NProcShared=20
# opt freq b3lyp/6-31g(2df,p)

Title Card Required 

0  1
C           4.27863         0.80918         1.31638
C           7.12040         1.45466         2.24305
C           4.70782         1.14697         1.79311
C           5.62224         0.58394         1.01018
C           5.09181         1.49328         2.31299
C           5.95812         1.86376         2.83037
N           7.26749         2.35799         3.52044
C           8.33791         2.46957         3.74026
C           9.50434         3.09693         4.61434
C          10.62107         2.97060         4.43216
C          10.76350         3.79096         5.61314
N          11.98441         3.83906         5.68735
C          12.86333         4.43393         6.60603
C          14.13626         4.25591         6.19349
C          15.03168         4.86938         7.16328
C          14.13248         3.78813         5.60891
N          12.06318         2.88562         4.30710
N           9.52670         2.11313         3.19112
H           2.20708         0.60219         1.02196
H           2.49126        -0.11711         0.69046
H           2.49089         0.54263         0.23195
H           2.88495         1.24252         1.94754
H           5.18205         0.07695         0.27269
H           4.73056         2.01729         3.06822
H           6.86131         0.83603         1.36229
H           9.34996         1.47087         2.27938
H           8.95412         3.48998         5.17990
H          11.30128         2.34310         3.52919
H          11.07897         4.30206         6.34931
H          13.11825         4.99494         7.34051
H          15.60877         3.68589         5.48816
H          15.26252         5.66671         8.31368
H          16.01880         4.29244         6.33559
H          13.75997         3.31682         4.93340

