%chk=CC1CCC2CCqCCCC1CCCCOrC2.chk
%NProcShared=20
# opt freq b3lyp/6-31g(2df,p)

Title Card Required 

0  1
C           1.02711         0.02336         0.44811
C           2.50714         0.01538         0.04076
C           2.88518        -1.17409        -0.86513
C           1.81564        -1.99479        -1.56668
C           1.47387        -1.51460        -2.98500
C           0.67679        -0.24553        -3.21640
C           1.87523         0.57499        -3.83009
C           1.34194         2.00551        -3.43492
C           2.04346         2.87668        -2.35925
C           2.00482         2.41567        -0.89563
C           3.09270         1.41372        -0.39398
C           4.32263         1.42920        -1.33224
C           5.54705         0.56288        -1.07553
C           6.27863         0.34602        -2.41396
C           7.42265        -0.63337        -2.25040
O           8.16732        -0.73228        -3.44629
C           2.51258        -0.91961        -3.93102
H           0.72901        -0.92548         0.90239
H           0.37019         0.17443        -0.40686
H           0.81038         0.81633         1.17037
H           3.03123        -0.19119         0.98888
H           3.46945        -1.86420        -0.23836
H           3.58236        -0.86669        -1.62855
H           0.90951        -2.11794        -0.96627
H           2.22529        -3.01186        -1.65640
H           0.96495        -2.37400        -3.44885
H           0.15211         0.12480        -2.33974
H          -0.09740        -0.38724        -3.98591
H           2.86705         0.96033        -3.62385
H           0.26926         2.01393        -3.20804
H           1.41820         2.59915        -4.35639
H           1.49168         3.83154        -2.35829
H           3.04923         3.17500        -2.66954
H           0.98268         2.10362        -0.68451
H           2.11842         3.31317        -0.26482
H           3.46674         1.84988         0.54722
H           4.67126         2.45959        -1.47279
H           3.97232         1.11639        -2.29784
H           5.29607        -0.41180        -0.65449
H           6.20512         1.05062        -0.35274
H           6.63590         1.30098        -2.82092
H           5.59760        -0.05072        -3.18226
H           7.04423        -1.62519        -1.98275
H           8.09671        -0.29190        -1.45600
H           7.55959        -1.08796        -4.14348
H           3.55428        -1.06008        -3.61788
H           2.46824        -1.33656        -4.94473

