%chk=CC1CCCCCqCrCqCrqOrC1.chk
%NProcShared=20
# opt freq b3lyp/6-31g(2df,p)

Title Card Required 

0  1
C           1.00349        -0.12984        -0.20358
C           2.53013        -0.18326        -0.29512
C           3.10841        -1.48617        -0.86633
C           4.45798        -1.99057        -0.26408
C           4.83959        -1.51702         1.15837
C           5.56692        -0.17101         1.37730
C           4.81795         1.16604         1.15917
C           3.63898         1.34867         2.16451
C           4.53042         1.49094        -0.35445
C           5.50800         0.85883        -1.34765
O           4.74675         2.91180        -0.53391
C           3.08909         1.16576        -0.79399
H           0.63177        -0.99372         0.35935
H           0.51595        -0.09270        -1.17723
H           0.70019         0.75477         0.37530
H           2.76823        -0.29262         0.73652
H           3.15291        -1.45134        -1.96121
H           2.38826        -2.28098        -0.62800
H           5.29951        -1.89527        -0.95796
H           4.38294        -3.08649        -0.23105
H           5.52585        -2.27869         1.55266
H           3.96468        -1.57360         1.81120
H           6.50269        -0.16300         0.80407
H           5.90652        -0.16154         2.42383
H           5.51802         1.94862         1.49281
H           2.95683         0.50245         2.27031
H           3.02748         2.22300         1.92191
H           4.01877         1.45781         3.18422
H           6.55782         1.05116        -1.11518
H           5.32341         1.15422        -2.38435
H           5.37608        -0.19813        -1.35344
H           5.69560         3.06654        -0.50023
H           2.99989         1.23075        -1.88814
H           2.44783         1.98696        -0.43636

