%chk=CC1dC2CdCCdC2CqdOrNCdCc2ccccc21.chk
%NProcShared=20
# opt freq b3lyp/6-31g(2df,p)

Title Card Required 

0  1
C           0.00283        -0.24025        -0.81317
C           0.05968        -0.51423        -2.71693
C           1.69427        -0.39019        -2.13753
C           3.50667        -0.32532        -1.65682
C           4.38184         0.24993        -2.54602
C           3.39853         0.80420        -3.37378
C           2.22872         0.89056        -2.70244
C           1.11126         1.73241        -2.79897
O           0.31165         1.99449        -1.90093
N           0.82466         1.67633        -4.09863
C          -0.47489         1.82519        -4.20097
C          -0.99679         1.63232        -5.37609
C          -1.99877         0.95022        -4.66480
C          -3.36006         1.98085        -4.59631
C          -4.69947         1.71355        -4.72270
C          -4.66022         0.50352        -5.26330
C          -3.14954        -0.42213        -4.91910
C          -1.52070        -0.34776        -4.10893
H           0.44652        -0.31517         0.29818
H           0.48842        -1.25317        -0.58568
H           0.64427         0.74178        -0.51643
H           4.18277        -0.19414        -0.65948
H           5.47815         0.55504        -2.57480
H           3.63659         1.13530        -4.35305
H           1.34975         1.06900        -4.73814
H          -1.08060         1.57788        -3.20312
H          -0.48328         1.38230        -6.28852
H          -3.16111         2.80326        -3.91364
H          -5.58919         2.13841        -4.24165
H          -5.64668         0.45565        -5.93965
H          -3.22726        -0.20283        -6.27087

