%chk=CCC1CCCCCC1CqCOCrCOO.chk
%NProcShared=20
# opt freq b3lyp/6-31g(2df,p)

Title Card Required 

0  1
C           0.80178         0.18990        -0.08937
C           2.31000         0.23719         0.08514
C           2.84469        -0.37207         1.41622
C           2.60446         0.68808         2.52390
C           1.23907         0.62362         3.21048
C           1.25183        -0.23531         4.46470
C           1.38939        -1.72539         4.19020
C           2.58752        -2.09549         3.30810
C           2.33356        -1.81769         1.79122
C           2.89594        -2.98192         0.86609
C           2.12648        -4.30653         1.05811
O           2.36591        -4.83260         2.35322
C           1.55872        -5.95291         2.65175
C           2.84360        -2.64275        -0.62891
O           3.17155        -3.72502        -1.49727
O           3.02978        -3.16661        -2.84033
H           0.53224         0.46503        -1.11158
H           0.31196         0.89964         0.57811
H           0.38979        -0.80560         0.09105
H           2.64712         1.27789        -0.00158
H           2.76716        -0.21302        -0.79260
H           3.93780        -0.44577         1.30568
H           2.71977         1.68892         2.08767
H           3.40588         0.62851         3.27095
H           0.45202         0.26167         2.54569
H           0.95524         1.64267         3.49709
H           0.31595        -0.06875         5.01130
H           2.06289         0.08978         5.12605
H           0.46154        -2.11289         3.74837
H           1.49118        -2.23496         5.15676
H           2.78007        -3.14318         3.51267
H           3.50079        -1.60206         3.65761
H           1.24743        -1.83691         1.65322
H           3.94450        -3.15069         1.14365
H           2.46199        -5.06055         0.33974
H           1.05356        -4.13435         0.90590
H           1.69936        -6.19114         3.70907
H           1.87680        -6.80421         2.04675
H           0.50169        -5.72887         2.48227
H           3.59395        -1.88132        -0.83729
H           1.83498        -2.30848        -0.89839
H           3.54422        -3.84492        -3.29889

