%chk=CCC1CCC2CC3CCCCqCqCCrC2rCqC1rC3.chk
%NProcShared=20
# opt freq b3lyp/6-31g(2df,p)

Title Card Required 

0  1
C           0.69477         0.27077        -0.34496
C           2.19344         0.42703        -0.37583
C           2.94925         1.26885         0.76035
C           2.34688         1.07756         2.10091
C           1.95891        -0.36777         2.06319
C           2.90698        -1.40233         1.41017
C           3.72510        -1.82328        -0.50470
C           5.48171        -1.38441        -0.93380
C           6.63278        -2.08378        -0.19736
C           6.25016        -3.48880         0.06647
C           5.76095        -3.34384         1.42587
C           4.70814        -2.40420         1.36747
C           3.77529        -3.14367         2.71041
C           4.57927        -3.15479         4.02913
C           5.64043        -4.28940         4.10125
C           2.48952        -2.47807         2.54251
C           4.99204        -0.41478         0.64932
C           4.48189         0.89513         1.19442
C           5.99572        -0.06922        -0.50047
H           0.44119        -0.67209        -0.86494
H           0.29382         1.17056        -0.74197
H           0.21237         0.16288         0.62677
H           2.63566         0.52897        -1.36870
H           2.31842        -0.61296        -0.26384
H           2.81023         2.30770         0.45422
H           1.52621         1.75143         2.32458
H           3.08848         1.30801         2.90243
H           1.12430        -0.78090         1.56661
H           1.54694        -0.50575         3.07650
H           3.73518        -0.99774         2.07335
H           3.24413        -1.59125        -1.48194
H           4.07473        -2.80449        -0.87454
H           5.03701        -0.86465        -1.79157
H           6.80803        -1.55491         0.81425
H           7.62050        -2.01731        -0.61026
H           7.03681        -4.20965         0.05178
H           5.43218        -3.91681        -0.53014
H           6.27445        -2.80666         2.21679
H           5.34276        -4.33817         1.67180
H           3.93247        -3.05859         0.76606
H           3.41980        -4.20833         2.62308
H           3.97295        -3.25557         4.93999
H           5.05587        -2.17742         4.07106
H           5.19063        -5.27743         4.24545
H           6.38777        -4.07046         4.86022
H           6.27481        -4.42391         3.23177
H           2.23789        -2.15633         3.59554
H           1.55860        -2.97120         2.24037
H           4.27838        -0.07625        -0.14678
H           5.06452         1.81492         1.04030
H           4.71273         0.64535         2.21497
H           6.96891         0.31435        -0.14715
H           5.98096         0.48141        -1.51665

