%chk=CCC12CCC3CqCrCqC1rOCqCrC2C3C.chk
%NProcShared=20
# opt freq b3lyp/6-31g(2df,p)

Title Card Required 

0  1
C           0.75176         0.13962         0.02765
C           2.27166         0.15397         0.03967
C           2.97142        -1.19813        -0.30013
C           2.36139        -2.30774         0.57697
C           3.06763        -3.64523         0.45368
C           4.45544        -3.56046        -0.19849
C           4.44630        -3.55487        -1.75337
C           3.65152        -4.75396        -2.28493
C           4.00632        -2.21449        -2.40883
C           2.74238        -1.59898        -1.79285
O           5.10852        -1.27737        -2.40284
C           5.10254        -0.34616        -1.31472
C           6.47579         0.30855        -1.13967
C           4.52580        -1.01248        -0.04687
C           5.21295        -2.34915         0.37049
C           6.70556        -2.47773         0.04755
H           0.37417         1.14197         0.25130
H           0.35147        -0.52946         0.79375
H           0.36441        -0.16544        -0.94855
H           2.58798         0.47142         1.04391
H           2.60860         0.94056        -0.64343
H           1.30967        -2.47002         0.30988
H           2.35350        -1.99380         1.63100
H           2.41589        -4.34996        -0.07770
H           3.16243        -4.07213         1.45810
H           4.98457        -4.47159         0.11470
H           5.48255        -3.73253        -2.07196
H           2.57320        -4.63090        -2.15716
H           3.95632        -5.66989        -1.76386
H           3.84063        -4.90397        -3.35136
H           3.81401        -2.41197        -3.47083
H           1.90274        -2.29510        -1.89870
H           2.47102        -0.71128        -2.38031
H           4.45394         0.48471        -1.61531
H           7.31068        -0.39040        -1.17341
H           6.52645         0.87531        -0.20300
H           6.67242         0.99939        -1.96545
H           4.66325        -0.31661         0.79491
H           5.14306        -2.40639         1.46467
H           6.90675        -2.41376        -1.02414
H           7.09722        -3.44876         0.36349
H           7.28412        -1.70784         0.56800

