%chk=CCC1CCC2CCOCCqCrC12.chk
%NProcShared=20
# opt freq b3lyp/6-31g(2df,p)

Title Card Required 

0  1
C           0.44785        -0.14020         0.38138
C           1.95443        -0.30965         0.38155
C           2.90269        -1.34596        -0.30772
C           2.44607        -2.46094        -1.30308
C           1.55048        -1.63489        -2.21806
C           2.58742        -0.52141        -2.50901
C           2.24135         0.86532        -2.98790
C           3.60705         1.31154        -3.54983
O           4.21417         2.31911        -2.76096
C           5.05637         1.78039        -1.73294
C           4.23621         0.99128        -0.70975
C           4.95894         1.03218         0.66738
C           3.70519        -0.45900        -1.28133
H           0.26094         0.84742         0.83906
H          -0.06501        -0.89771         0.95714
H           0.02451        -0.01170        -0.61355
H           2.36022        -0.05977         1.35091
H           2.08482         0.60426        -0.19312
H           3.54829        -1.83451         0.45494
H           2.05793        -3.37013        -0.92366
H           3.30953        -2.76712        -1.94579
H           0.63808        -1.42338        -1.67832
H           1.22866        -2.19577        -3.10520
H           3.06360        -0.99181        -3.38404
H           1.85250         1.50949        -2.18929
H           1.47857         0.85143        -3.77562
H           3.50444         1.63276        -4.58143
H           4.32270         0.47507        -3.60190
H           5.52604         2.64602        -1.25302
H           5.86595         1.17284        -2.15584
H           3.39292         1.66882        -0.55033
H           6.00733         0.72371         0.63127
H           4.45431         0.47212         1.45890
H           4.96445         2.07716         1.02715
H           4.59889        -0.99981        -1.63076

