%chk=CCC1CC2CCCCCqCCC2rC1.chk
%NProcShared=20
# opt freq b3lyp/6-31g(2df,p)

Title Card Required 

0  1
C           1.21114        -0.04320        -0.98312
C           2.67247         0.21915        -0.71741
C           3.03183         0.90091         0.60066
C           2.03400         1.58893         1.58054
C           1.32510         0.67695         2.66785
C           0.08421         0.01801         1.97974
C          -0.14359        -1.46403         1.98244
C           1.07047        -2.35957         2.18730
C           2.19933        -2.33376         1.13752
C           3.51377        -1.60118         1.52716
C           3.83714        -2.14310         2.92255
C           3.70857        -0.98353         3.90202
C           2.25599        -0.09995         3.89712
C           3.84113        -0.04832         1.46539
H           1.02802        -0.65628        -1.86603
H           0.63373         0.86998        -1.02138
H           0.83192        -0.68282        -0.19774
H           3.07324         0.80884        -1.55274
H           3.21049        -0.72574        -0.80071
H           3.72934         1.71075         0.33054
H           1.29988         2.17910         0.98021
H           2.55720         2.36966         2.14201
H           0.79789         1.42372         3.29138
H           0.05635         0.41303         0.94447
H          -0.87386         0.50920         2.24586
H          -0.69119        -1.80505         1.10323
H          -0.81501        -1.66281         2.84048
H           0.72816        -3.38822         2.30499
H           1.43247        -2.13494         3.16654
H           1.86677        -2.18544         0.12169
H           2.50805        -3.39504         1.06684
H           4.26148        -2.00884         0.83007
H           4.80807        -2.65695         2.88042
H           3.18612        -2.96460         3.26278
H           4.60331        -0.35886         3.72884
H           3.93390        -1.35768         4.91256
H           2.49896         0.72787         4.57900
H           1.54122        -0.70611         4.46406
H           4.91096         0.07834         1.28462
H           3.78943         0.49267         2.39135

