%chk=CCC1CCqCrN1CCqCOrCCCCCO.chk
%NProcShared=20
# opt freq b3lyp/6-31g(2df,p)

Title Card Required 

0  1
C           0.98955         0.03996         0.41427
C           2.49811        -0.03038         0.18913
C           3.18499        -1.39658         0.06354
C           3.13990        -2.19687         1.38378
C           3.25321        -3.43622         0.47671
C           4.70098        -3.88256         0.22533
N           2.54429        -2.59666        -0.59108
C           3.07835        -2.93830        -1.93277
C           2.33470        -2.25917        -3.11006
C           2.40762        -0.73484        -3.01015
O           1.32124        -0.26806        -2.26426
C           2.87372        -2.67637        -4.47873
C           2.07264        -1.96506        -5.57420
C           2.61079        -2.24375        -6.94701
C           1.82211        -1.41703        -7.95294
C           2.35060        -1.68847        -9.34232
O           1.60825        -0.94681       -10.29270
H           0.66910         1.08326         0.28591
H           0.70892        -0.28800         1.41335
H           0.36612        -0.55139        -0.25468
H           2.95786         0.49158         1.03795
H           2.78840         0.59494        -0.66361
H           4.20893        -1.21188        -0.29399
H           2.18691        -2.14333         1.92531
H           3.95319        -1.99310         2.08397
H           2.66187        -4.28797         0.83481
H           5.34481        -3.07987        -0.15049
H           4.73918        -4.71136        -0.48886
H           5.15741        -4.23656         1.15678
H           2.95823        -4.02524        -2.06986
H           4.15116        -2.73539        -2.02519
H           1.28908        -2.60225        -3.06032
H           2.25508        -0.17862        -3.92191
H           3.38991        -0.40036        -2.65192
H           0.90595        -1.07354        -1.87582
H           2.78703        -3.76162        -4.60974
H           3.93723        -2.42043        -4.55509
H           2.13740        -0.88060        -5.50211
H           1.00737        -2.21204        -5.48701
H           2.54038        -3.31207        -7.16202
H           3.66757        -1.95036        -6.97996
H           1.89700        -0.34248        -7.72914
H           0.75173        -1.65268        -7.89062
H           2.27165        -2.75380        -9.57824
H           3.40250        -1.39396        -9.41116
H           0.67711        -1.21190       -10.20100

