%chk=CCC1CCCCCCCqCrSC1.chk
%NProcShared=20
# opt freq b3lyp/6-31g(2df,p)

Title Card Required 

0  1
C           0.70807        -0.28941        -0.38446
C           2.21412        -0.21222        -0.20597
C           2.91413        -0.98796         0.92535
C           4.49300        -0.93114         0.83776
C           5.14371        -0.12021        -0.30443
C           5.64374         1.29948         0.02838
C           4.59908         2.32759         0.49392
C           4.28314         2.14134         1.97696
C           3.03853         2.83785         2.51319
C           2.17884         1.96835         3.46537
C           2.91176         1.39122         4.67016
S           1.21600         0.63284         2.66865
C           2.41783        -0.73044         2.38019
H           0.44074         0.33268        -1.24577
H           0.12634         0.10338         0.44092
H           0.38206        -1.31578        -0.57814
H           2.45552         0.84537        -0.09859
H           2.61954        -0.55222        -1.15872
H           2.68108        -2.04999         0.73797
H           4.83205        -1.97188         0.72463
H           4.95774        -0.64705         1.78965
H           4.51929        -0.07448        -1.19755
H           6.02499        -0.68855        -0.63474
H           6.11410         1.69115        -0.88286
H           6.44343         1.22891         0.77572
H           3.71396         2.28457        -0.14362
H           4.99906         3.33753         0.34552
H           5.15639         2.45401         2.56076
H           4.17601         1.09173         2.17795
H           2.41894         3.23604         1.69982
H           3.37677         3.71307         3.08491
H           1.39840         2.63647         3.85161
H           3.83477         0.87635         4.39231
H           2.28057         0.67450         5.21150
H           3.18028         2.18376         5.37112
H           1.87785        -1.63103         2.70026
H           3.24975        -0.67712         3.08505

