%chk=CCC1CCNC2qCdOrC1C2qCrC.chk
%NProcShared=20
# opt freq b3lyp/6-31g(2df,p)

Title Card Required 

0  1
C           0.80744         0.00592         0.06185
C           2.30767        -0.05093        -0.10338
C           2.79280        -1.09031        -1.13701
C           2.88669        -2.46725        -0.46872
C           3.25975        -3.55838        -1.45369
N           2.17415        -3.67177        -2.39554
C           2.11050        -2.57693        -3.37928
C           1.91604        -3.28873        -4.73381
O           1.96554        -2.80440        -5.85172
C           2.02484        -1.21054        -2.50319
C           2.85282        -1.26009        -3.70042
C           2.27312        -0.37683        -4.80435
C           4.34192        -1.18505        -3.61661
H           0.53709         0.66578         0.89101
H           0.40280        -0.98806         0.26428
H           0.34034         0.40374        -0.84084
H           2.75822        -0.28725         0.87527
H           2.69079         0.94888        -0.34844
H           3.82113        -0.75291        -1.31294
H           1.91220        -2.70675        -0.02628
H           3.61317        -2.44987         0.34906
H           3.38621        -4.50925        -0.93424
H           4.19982        -3.38941        -1.97836
H           1.28149        -3.70089        -1.89395
H           1.86838        -4.39982        -4.67035
H           1.19184        -0.52081        -2.56430
H           1.17787        -0.47849        -4.86619
H           2.69261        -0.63789        -5.77799
H           2.49333         0.67302        -4.60427
H           4.77000        -1.73562        -2.78215
H           4.62988        -0.14004        -3.46980
H           4.79791        -1.58635        -4.51988

