%chk=CCC1CqCqdOrONCrCCOC2CC21O.chk
%NProcShared=20
# opt freq b3lyp/6-31g(2df,p)

Title Card Required 

0  1
C           1.06745         0.01643        -0.04503
C           2.59785         0.01898        -0.05376
C           3.15527        -1.12215         0.81763
C           4.54311        -1.60812         0.40553
C           5.64629        -0.61799         0.78680
O           6.59493        -0.89381         1.49865
O           5.46575         0.59299         0.13746
N           6.45818         1.58125         0.58430
C           6.14445         2.81684        -0.11957
C           4.82354        -3.00268         1.01406
C           3.55351        -3.84457         1.16007
O           2.96238        -3.66731         2.45429
C           2.47746        -2.33392         2.88220
C           3.55837        -1.64262         3.59061
C           3.01758        -0.98740         2.31387
O           2.77572         0.37046         2.73681
H           0.68000         0.78386        -0.71985
H           0.67846         0.20218         0.95967
H           0.67259        -0.94974        -0.38463
H           2.96606         0.99943         0.25412
H           2.91225        -0.14397        -1.09394
H           2.42635        -1.88702         0.54544
H           4.57142        -1.73506        -0.68462
H           7.32614         1.18836         0.21296
H           5.18375         3.22253         0.21161
H           6.12014         2.67442        -1.20446
H           6.91162         3.56737         0.10144
H           5.29968        -2.91551         1.99439
H           5.56574        -3.51575         0.39344
H           3.81446        -4.90230         1.03709
H           2.79890        -3.68252         0.38417
H           1.48689        -2.34607         3.32356
H           4.56446        -2.01583         3.62101
H           3.25245        -1.20961         4.54330
H           3.55309         0.71877         3.23003

