%chk=CCC1CCCCqOCrCqCrC1.chk
%NProcShared=20
# opt freq b3lyp/6-31g(2df,p)

Title Card Required 

0  1
C           0.88452         0.05127         0.30254
C           2.40260         0.01636         0.21282
C           2.93886        -0.58218        -1.10235
C           2.83796        -2.11959        -1.11810
C           3.18764        -2.85419        -2.42130
C           2.20541        -2.57977        -3.55743
C           2.48249        -1.32018        -4.40417
O           3.36006        -1.66629        -5.48562
C           3.47531        -0.64386        -6.47488
C           3.01131        -0.09189        -3.63143
C           4.54331        -0.01857        -3.47722
C           2.27778         0.10519        -2.30499
H           0.57380         0.44509         1.27355
H           0.45582        -0.94528         0.17893
H           0.45645         0.70632        -0.46331
H           2.81421        -0.53903         1.06354
H           2.77752         1.04406         0.30560
H           4.00729        -0.33118        -1.08224
H           1.82119        -2.42119        -0.83242
H           3.49492        -2.50709        -0.33031
H           3.14943        -3.92768        -2.19820
H           4.22066        -2.67704        -2.73883
H           1.19466        -2.51268        -3.12673
H           2.18773        -3.45472        -4.21886
H           1.51244        -1.05775        -4.85208
H           4.18443        -0.98467        -7.23260
H           3.87368         0.28756        -6.06436
H           2.50888        -0.43645        -6.93922
H           2.73698         0.77749        -4.24676
H           4.95493        -0.80857        -2.84904
H           4.82504         0.93725        -3.02588
H           5.07937        -0.10097        -4.42335
H           1.23246        -0.22117        -2.40741
H           2.22965         1.18525        -2.11525

