%chk=CCC[SH]qCC1CCqOCrO1rOC.chk
%NProcShared=20
# opt freq b3lyp/6-31g(2df,p)

Title Card Required 

0  1
C           0.84492        -0.17191         0.02361
C           2.33830        -0.39353         0.01869
C           3.02734        -1.06595         1.18362
S           4.79935        -0.77175         0.98289
C           5.26425         0.93715         1.32100
C           4.80011         1.87833         0.21011
C           3.39090         2.52595         0.27682
C           4.09971         3.75831        -0.17621
O           4.06469         3.90777        -1.61129
C           4.39766         5.18730        -2.08469
O           5.35569         3.23956         0.34592
O           5.37154        -1.51571         2.31383
C           6.77092        -1.75544         2.39989
H           0.59737         0.53652        -0.78219
H           0.52522         0.30541         0.95753
H           0.28935        -1.08875        -0.14131
H           2.70471         0.57694         0.11877
H           2.71108        -0.72730        -0.95971
H           2.84657        -2.13964         1.19006
H           2.72820        -0.62503         2.14133
H           5.32236        -1.29992        -0.13832
H           6.36000         0.93367         1.35325
H           4.89031         1.22095         2.30803
H           5.09074         1.48101        -0.77385
H           2.92945         2.55894         1.26867
H           2.65010         2.25538        -0.48679
H           3.72104         4.64564         0.34840
H           4.36095         5.17704        -3.17538
H           5.40458         5.44267        -1.74839
H           3.66981         5.91133        -1.70701
H           6.96858        -2.44116         3.22751
H           7.29168        -0.81390         2.59275
H           7.14281        -2.20028         1.47162

