%chk=CCCCqOCrCqNCOCCCOrOC.chk
%NProcShared=20
# opt freq b3lyp/6-31g(2df,p)

Title Card Required 

0  1
C           0.80797         0.00452         0.05753
C           2.32112        -0.05144         0.24415
C           2.98141        -0.54765        -1.04352
C           4.52260        -0.46751        -1.23913
O           5.16345        -1.45537        -0.39177
C           4.97112        -1.24895         1.00007
C           5.00590        -0.74268        -2.77173
N           4.54747         0.20243        -3.80841
C           3.13128         0.21827        -3.95215
O           2.63053         0.93766        -5.06308
C           1.21486         1.07463        -4.84434
C           0.66352         2.12565        -5.76853
C          -0.85183         2.13638        -5.70072
O          -1.36524         3.08348        -6.62104
O           6.44858        -0.74018        -2.77895
C           7.02966        -1.21266        -3.99214
H           0.33292         0.29171         0.99833
H           0.42788        -0.98076        -0.23440
H           0.51981         0.72627        -0.71366
H           2.47133        -0.70297         1.09671
H           2.70384         0.94444         0.49412
H           2.50230         0.13229        -1.71083
H           2.62601        -1.54776        -1.31478
H           4.90684         0.52103        -0.95764
H           5.70749        -1.81394         1.57272
H           4.01625        -1.68020         1.29338
H           5.03671        -0.18893         1.26972
H           4.69143        -1.76776        -3.01994
H           4.92874        -0.07347        -4.71510
H           2.80032         0.84850        -3.14650
H           2.70080        -0.79294        -3.96511
H           0.99149         1.37646        -3.80707
H           0.74790         0.09731        -5.01211
H           1.01159         1.94448        -6.78978
H           1.06585         3.10911        -5.49171
H          -1.20957         2.39232        -4.69694
H          -1.25537         1.15178        -5.96037
H          -0.97000         3.94587        -6.40130
H           8.11404        -1.26599        -3.86657
H           6.84468        -0.51665        -4.81647
H           6.65250        -2.20632        -4.25270

