%chk=CCCCqCrCCCC1CCCqCrCqCrqCCrCqCrO1.chk
%NProcShared=20
# opt freq b3lyp/6-31g(2df,p)

Title Card Required 

0  1
C           0.93731        -0.05897        -0.03446
C           2.45251        -0.08096        -0.03454
C           3.02181         1.07719        -0.85040
C           4.55726         1.07366        -0.88984
C           5.09906        -0.22972        -1.50041
C           5.02614         2.31726        -1.67445
C           6.53757         2.39762        -1.70013
C           7.08416         3.57015        -2.50947
C           8.61629         3.47387        -2.49266
C           9.12036         2.30988        -3.34810
C          10.63214         2.16493        -3.45463
C          11.25451         3.27105        -4.30717
C          12.45107         2.66591        -5.06158
C          11.58946         4.60382        -3.52395
C          11.57675         5.73082        -4.60322
C          13.01714         4.55178        -2.89698
C          13.48363         5.82392        -2.18905
C          10.52116         4.96760        -2.41957
C          10.77746         4.42518        -0.99046
O           9.17752         4.72355        -2.87977
H           0.55485        -0.90938         0.53762
H           0.55223        -0.13397        -1.05587
H           0.55819         0.86293         0.41526
H           2.76556        -1.04126        -0.45521
H           2.82980        -0.03328         0.99214
H           2.67747         2.02513        -0.41433
H           2.62960         1.04073        -1.87316
H           4.93427         1.14992         0.13776
H           4.76894        -0.34111        -2.53736
H           4.77688        -1.10912        -0.93768
H           6.19168        -0.27390        -1.48015
H           4.62745         3.22657        -1.20792
H           4.64335         2.28242        -2.70021
H           6.92311         1.47889        -2.13737
H           6.91681         2.44515        -0.67081
H           6.75431         4.51758        -2.06767
H           6.70370         3.55361        -3.53809
H           8.84408         3.26990        -1.44582
H           8.70299         2.40131        -4.36111
H           8.74907         1.36311        -2.94857
H          10.81079         1.18925        -3.92285
H          11.11332         2.09059        -2.47452
H          10.52006         3.52016        -5.09022
H          13.22167         2.31065        -4.36834
H          12.89832         3.38152        -5.75483
H          12.13399         1.79945        -5.65305
H          12.31666         5.53865        -5.38905
H          11.80699         6.71288        -4.17999
H          10.59686         5.81412        -5.08773
H          13.76469         4.35015        -3.67166
H          13.07097         3.70661        -2.19967
H          13.64543         6.63564        -2.90138
H          14.43254         5.62945        -1.68036
H          12.78192         6.19082        -1.43804
H          10.55740         6.05952        -2.30435
H          10.73469         3.33612        -0.92587
H          10.01512         4.81329        -0.30542
H          11.74510         4.69167        -0.57208

