%chk=CCCCqCCOCrCCOC1CCCC1.chk
%NProcShared=20
# opt freq b3lyp/6-31g(2df,p)

Title Card Required 

0  1
C           0.70122        -0.12099        -0.27837
C           2.21183        -0.07130        -0.25834
C           2.90791        -1.41910        -0.05001
C           4.46536        -1.37377         0.02115
C           5.04902        -0.59612         1.24738
C           4.68774         0.87380         1.27820
O           5.33232         1.64809         2.28260
C           4.67699         2.92534         2.32574
C           4.99749        -2.83626         0.00735
C           6.51915        -2.87866        -0.02882
O           7.02139        -4.20972         0.04001
C           8.44833        -4.20250         0.08047
C           9.02939        -3.46130         1.28622
C          10.44747        -3.98415         1.38962
C          10.39254        -5.41197         0.85054
C           8.98695        -5.61035         0.28553
H           0.32079         0.90781        -0.29962
H           0.32874        -0.58128         0.64159
H           0.31885        -0.65907        -1.14595
H           2.35530         0.57220         0.59543
H           2.61657         0.45116        -1.12772
H           2.62071        -2.06478        -0.89386
H           2.52381        -1.90240         0.85415
H           4.82822        -0.88742        -0.89419
H           6.14344        -0.62763         1.25571
H           4.72664        -1.08077         2.17507
H           3.65434         0.91936         1.58929
H           4.85479         1.33438         0.30170
H           5.00805         3.47528         3.20455
H           3.58407         2.81271         2.38899
H           4.91927         3.48689         1.41766
H           4.60727        -3.38255        -0.86154
H           4.63563        -3.38162         0.88819
H           6.89330        -2.35392         0.84589
H           6.89300        -2.38842        -0.93410
H           8.83737        -3.78664        -0.85827
H           8.45602        -3.69176         2.19309
H           9.01813        -2.37341         1.16050
H          10.81815        -3.93836         2.41794
H          11.11508        -3.37438         0.76923
H          10.59880        -6.14074         1.64055
H          11.14986        -5.54475         0.07058
H           8.36159        -6.16158         0.99865
H           8.99091        -6.18661        -0.64495

