%chk=CCCC1CdCCCqCqCrCCrCCqCrC1.chk
%NProcShared=20
# opt freq b3lyp/6-31g(2df,p)

Title Card Required 

0  1
C           0.51953         0.21748         0.24343
C           1.96243         0.28042         0.65879
C           2.85139         1.53296         0.51278
C           4.43453         1.35293         0.39413
C           5.06857         0.92613         1.72888
C           5.82278        -0.12610         2.06670
C           6.30535        -1.29601         1.21376
C           5.18067        -2.29230         0.83638
C           5.53054        -3.42409        -0.13171
C           6.71351        -4.21089         0.38683
C           4.28198        -4.31071        -0.40194
C           4.52879        -5.33170        -1.48293
C           4.02074        -1.55633         0.20709
C           4.29013        -0.78097        -1.13943
C           3.09759        -0.57517        -2.12482
C           4.93491         0.58732        -0.86670
H           0.30254        -0.83238        -0.03233
H           0.32802         0.81319        -0.64955
H          -0.12662         0.47600         1.07416
H           2.29150        -0.40640        -0.07889
H           2.08650        -0.20521         1.63222
H           2.65352         2.15014         1.39487
H           2.52892         2.10607        -0.36201
H           4.82712         2.37085         0.24375
H           4.80094         1.60933         2.54417
H           6.08340        -0.22579         3.12751
H           7.08093        -1.81175         1.79120
H           6.82225        -0.94064         0.32166
H           4.82828        -2.73677         1.78330
H           5.84620        -2.99272        -1.08502
H           6.46768        -4.69842         1.33293
H           7.57016        -3.54919         0.53832
H           7.02463        -4.95654        -0.34470
H           3.43235        -3.73333        -0.78384
H           3.93321        -4.77837         0.52714
H           4.78718        -4.81847        -2.41513
H           3.62346        -5.91955        -1.65447
H           5.33538        -6.00661        -1.20394
H           3.77630        -0.90590         1.02843
H           3.12324        -2.17903         0.16387
H           4.97788        -1.37126        -1.74810
H           2.48347         0.30581        -1.90401
H           2.44327        -1.45052        -2.16953
H           3.46909        -0.37173        -3.13580
H           4.80830         1.22454        -1.75219
H           6.02340         0.46364        -0.81908

