%chk=CCCCC1NCqCCrCCqOCrOP1.chk
%NProcShared=20
# opt freq b3lyp/6-31g(2df,p)

Title Card Required 

0  1
C           0.90437        -0.07218         0.16853
C           2.42346        -0.10559         0.19439
C           2.94458         0.62457        -1.02537
C           4.48008         0.66478        -1.08305
C           5.03190         1.53068        -2.23777
N           4.44936         1.08502        -3.50088
C           4.82950         1.71445        -4.77247
C           6.34796         1.90452        -4.93413
C           6.75832         2.43136        -6.29994
C           3.93792         2.95552        -5.00765
C           4.46400         4.25711        -4.37685
O           5.28693         4.87595        -5.37173
C           6.13002         5.89985        -4.87704
O           5.19881         4.03635        -3.18115
P           4.50673         3.28261        -1.94150
H           0.49547        -0.60723         1.02710
H           0.52278        -0.53640        -0.74770
H           0.53863         0.96081         0.19524
H           2.78107        -1.13974         0.18768
H           2.79248         0.37791         1.10530
H           2.52591         1.63607        -1.00645
H           2.54311         0.13439        -1.91906
H           4.86044        -0.36027        -1.18020
H           4.87016         1.04941        -0.13030
H           6.12107         1.43568        -2.24705
H           3.44659         0.99195        -3.44691
H           4.52940         0.98320        -5.53815
H           6.85697         0.94642        -4.76772
H           6.75047         2.57913        -4.17315
H           6.68235         1.64966        -7.05744
H           7.79108         2.79060        -6.25804
H           6.14213         3.25871        -6.64759
H           2.93641         2.74764        -4.60035
H           3.77080         3.08788        -6.08363
H           3.62915         4.94241        -4.18336
H           6.82234         6.17124        -5.67856
H           6.73697         5.56270        -4.03097
H           5.53553         6.77255        -4.60285
H           3.17762         3.16612        -2.40556

