%chk=CCCCCCCqCrCCCC1CCC1.chk
%NProcShared=20
# opt freq b3lyp/6-31g(2df,p)

Title Card Required 

0  1
C           0.87934        -0.06321         0.07112
C           2.39591        -0.06822         0.06846
C           2.93286         1.28761        -0.36142
C           4.45588         1.28118        -0.37374
C           4.95301         2.65279        -0.79085
C           6.47346         2.71823        -0.77852
C           6.97519         4.11323        -1.17777
C           6.45565         5.18991        -0.21097
C           8.51036         4.08675        -1.22454
C           9.07020         5.42577        -1.68372
C          10.58461         5.43869        -1.64241
C          11.12014         6.81485        -2.02160
C          10.36927         8.13807        -1.66318
C          11.74189         8.73673        -1.30864
C          12.22378         7.30029        -1.04757
H           0.50024        -1.04221         0.37624
H           0.49005         0.16252        -0.92653
H           0.49437         0.68857         0.76759
H           2.76074        -0.84382        -0.61433
H           2.76501        -0.31297         1.07054
H           2.57213         2.06455         0.32555
H           2.55695         1.54363        -1.35903
H           4.83071         0.51825        -1.06566
H           4.83628         1.03869         0.62481
H           4.53339         3.38108        -0.08983
H           4.58031         2.90729        -1.78876
H           6.87079         1.97076        -1.47917
H           6.85211         2.45258         0.21469
H           6.60355         4.34329        -2.18267
H           6.80404         5.00009         0.80833
H           5.36401         5.23789        -0.20034
H           6.77189         6.19417        -0.50331
H           8.85043         3.29950        -1.91109
H           8.90683         3.83471        -0.23412
H           8.71807         6.20338        -1.00346
H           8.70250         5.67686        -2.68318
H          10.99034         4.67929        -2.32199
H          10.90833         5.15798        -0.63407
H          11.43341         6.82329        -3.07526
H           9.69330         8.09129        -0.80349
H           9.84660         8.62250        -2.49473
H          11.75014         9.39921        -0.43861
H          12.24595         9.22705        -2.14627
H          12.07484         6.98683        -0.00671
H          13.24790         7.06383        -1.34410

