%chk=CCCCqCrOCNqCrCqCrCC.chk
%NProcShared=20
# opt freq b3lyp/6-31g(2df,p)

Title Card Required 

0  1
C           0.92680         0.06475        -0.08183
C           2.44105         0.04432        -0.06591
C           3.03801         0.66993        -1.32578
C           4.57186         0.62206        -1.32172
C           5.07850        -0.82543        -1.24742
O           5.01499         1.28354        -2.51871
C           6.43792         1.36083        -2.57514
N           6.94021         2.01892        -3.78447
C           6.41257         3.38450        -3.82942
C           8.43353         1.96592        -3.80472
C           8.96233         0.51156        -3.71968
C           9.00445         2.62906        -5.08123
C          10.52727         2.66904        -5.11521
H           0.54368        -0.41162         0.82615
H           0.54375        -0.49081        -0.94337
H           0.54661         1.08836        -0.12471
H           2.74595        -1.00172         0.02739
H           2.81314         0.57201         0.81936
H           2.71033         1.71416        -1.41696
H           2.65783         0.16451        -2.22254
H           4.93965         1.19040        -0.45891
H           4.76853        -1.38475        -2.13615
H           4.72879        -1.34431        -0.35375
H           6.16937        -0.87941        -1.19389
H           6.78129         0.33804        -2.60634
H           6.81517         1.85543        -1.67014
H           5.31606         3.38672        -3.80026
H           6.66284         3.88853        -4.76656
H           6.77699         3.99435        -2.99401
H           8.81802         2.50942        -2.93118
H           8.59669        -0.09031        -4.55910
H           8.68662         0.00792        -2.78819
H          10.05420         0.47373        -3.72117
H           8.67285         3.66889        -5.15436
H           8.63185         2.10767        -5.97117
H          10.91766         3.18188        -4.23068
H          10.86575         3.21001        -6.00356
H          10.96674         1.66993        -5.16268

