%chk=CCCC1CCCCC1COCqCCrCC.chk
%NProcShared=20
# opt freq b3lyp/6-31g(2df,p)

Title Card Required 

0  1
C           0.81643         0.06983        -0.06272
C           2.32673         0.06428        -0.14641
C           2.93038        -1.22710         0.40964
C           4.47461        -1.18972         0.51576
C           5.09252        -0.77736        -0.83310
C           6.60961        -0.65681        -0.79339
C           7.05055         0.32496         0.28200
C           6.51873        -0.11445         1.63108
C           4.97942        -0.24453         1.62267
C           4.58086        -0.70808         3.01579
O           3.19253        -0.66053         3.27851
C           2.84202        -1.18045         4.57010
C           3.28731        -0.21792         5.69296
C           4.78769        -0.09329         5.95123
C           1.30484        -1.35831         4.55690
C           0.74204        -1.91336         5.85868
H           0.42613         0.96334        -0.55890
H           0.48374         0.08050         0.97925
H           0.40093        -0.81162        -0.55885
H           2.70957         0.94256         0.38506
H           2.60371         0.17171        -1.19974
H           2.64079        -2.06987        -0.23016
H           2.46783        -1.46010         1.37072
H           4.81342        -2.20416         0.75876
H           4.71060         0.20195        -1.13505
H           4.79352        -1.49669        -1.60444
H           6.96574        -0.30635        -1.76821
H           7.05612        -1.63842        -0.60916
H           6.68194         1.33180         0.05560
H           8.14448         0.38235         0.31531
H           6.82702         0.62036         2.38960
H           6.97931        -1.06675         1.91784
H           4.56252         0.75169         1.45982
H           5.04291         0.05369         3.62963
H           5.00001        -1.68494         3.25654
H           3.29191        -2.17373         4.69585
H           2.86665        -0.55613         6.64126
H           2.88575         0.77872         5.47915
H           5.29137        -1.06141         5.86598
H           4.96314         0.31124         6.94925
H           5.27598         0.63359         5.29799
H           1.02152        -2.03171         3.73554
H           0.82017        -0.40207         4.32284
H           1.18788        -2.88512         6.09143
H          -0.34274        -2.03991         5.78956
H           0.92508        -1.23883         6.69898

