%chk=CCCCCCqCrCCCCCCqCrCC.chk
%NProcShared=20
# opt freq b3lyp/6-31g(2df,p)

Title Card Required 

0  1
C           0.87060        -0.02580         0.07447
C           2.38521        -0.00683         0.09027
C           2.90298         1.37195         0.48557
C           4.42212         1.36729         0.47395
C           4.98610         2.74026         0.81708
C           6.52179         2.74719         0.78092
C           7.05475         2.36603        -0.60842
C           7.01274         4.13787         1.20955
C           8.52927         4.19428         1.27206
C           9.01427         5.57474         1.67731
C          10.53293         5.56142         1.64925
C          11.10747         6.92932         1.98197
C          12.64565         6.92617         1.93745
C          13.16365         6.53402         0.54711
C          13.15963         8.31255         2.36171
C          14.67701         8.38402         2.42990
H           0.50846        -1.01908        -0.20453
H           0.48256         0.69866        -0.64792
H           0.47160         0.22367         1.06243
H           2.76338        -0.27681        -0.90384
H           2.75786        -0.76096         0.79242
H           2.53654         1.64636         1.48185
H           2.53275         2.12455        -0.21993
H           4.74342         1.06377        -0.52735
H           4.80633         0.62412         1.18078
H           4.64398         3.02775         1.82123
H           4.59279         3.49174         0.12348
H           6.89030         2.01132         1.50489
H           6.71485         3.07814        -1.36575
H           6.73619         1.36427        -0.90703
H           8.14701         2.33097        -0.63275
H           6.60733         4.38345         2.20078
H           6.63991         4.89953         0.51644
H           8.95757         3.96899         0.28910
H           8.90436         3.43857         1.96988
H           8.64558         5.83703         2.67530
H           8.63575         6.32204         0.97196
H          10.84130         5.25424         0.64372
H          10.91760         4.81178         2.34890
H          10.76713         7.22012         2.98503
H          10.71155         7.67558         1.28395
H          13.00772         6.18502         2.66046
H          12.80879         7.23547        -0.21408
H          12.84363         5.52824         0.26063
H          14.25548         6.50880         0.51480
H          12.75616         8.56080         3.35216
H          12.78982         9.07760         1.66955
H          15.06987         7.63001         3.11829
H          14.99379         9.37073         2.77871
H          15.13187         8.22694         1.44792

