%chk=CCCC1CdCCqCrdC2CCCCCqCC1rC2.chk
%NProcShared=20
# opt freq b3lyp/6-31g(2df,p)

Title Card Required 

0  1
C           1.05115         0.07925        -0.09560
C           2.61507         0.10558        -0.15233
C           3.21638        -0.03575        -1.62154
C           4.74681         0.56739        -2.25286
C           4.94037        -0.61374        -3.26571
C           6.09352        -1.31980        -3.57394
C           6.80083        -1.34647        -4.81081
C           5.87896        -0.96987        -5.95750
C           8.18089        -1.21232        -4.78960
C           9.30833        -0.68631        -3.64328
C          10.21890         0.66290        -3.80205
C          11.17493         0.48697        -4.93450
C          10.31167         0.95542        -6.08690
C           8.57344         0.62425        -5.70542
C           7.42598         1.11152        -4.18045
C           6.50566         0.62450        -2.39544
C           8.70349        -0.89110        -6.08394
H           0.67510         0.21629         0.93247
H           0.63297        -0.86959        -0.45344
H           0.61652         0.88848        -0.69304
H           2.94734        -0.71311         0.50085
H           2.92235         1.04725         0.30319
H           2.56499         0.65525        -2.18128
H           2.88345        -1.03622        -1.96832
H           4.91785         0.94319        -1.21045
H           4.12302        -0.48515        -3.96107
H           7.01065        -1.35246        -2.96687
H           4.86132        -0.75288        -5.63071
H           5.83023        -1.82984        -6.60102
H           6.12955        -0.04021        -6.49110
H          10.02385        -1.50300        -3.58061
H           8.85594        -0.50416        -2.67526
H          10.73425         0.92522        -2.88255
H           9.69323         1.61016        -4.02077
H          11.46867        -0.56555        -5.03784
H          12.10081         1.06687        -4.82603
H          10.72880         0.40122        -6.97186
H          10.52218         1.99875        -6.36136
H           8.18180         1.03668        -6.67143
H           6.54562         1.36364        -4.79441
H           7.82179         2.09576        -3.94753
H           7.05357         0.70686        -1.43253
H           6.49134        -0.40377        -1.85926
H           9.69164        -1.36198        -6.21586
H           8.10835        -1.22153        -6.94197

