%chk=CCCCCNCCCqCCOrCqCrCdO.chk
%NProcShared=20
# opt freq b3lyp/6-31g(2df,p)

Title Card Required 

0  1
C           0.94172         0.07133         0.05766
C           2.45521         0.06982         0.05951
C           2.98406        -0.80283         1.18510
C           4.50163        -0.77152         1.17673
C           5.03948        -1.59765         2.31536
N           6.49833        -1.46704         2.31291
C           6.99222        -2.34246         3.34886
C           8.49259        -2.49759         3.40229
C           8.98080        -3.44735         4.53411
C           8.47086        -4.90810         4.35906
C           6.96689        -5.14086         4.47903
O           6.69613        -6.52926         4.40727
C          10.54112        -3.42512         4.57641
C          11.09739        -2.01215         4.77621
C          11.11383        -4.29024         5.69270
O          12.31124        -4.46641         5.85937
H           0.56770         0.70259        -0.75196
H           0.55533         0.45732         1.00626
H           0.55515        -0.94269        -0.08433
H           2.82612         1.09439         0.18116
H           2.82819        -0.29973        -0.90284
H           2.62610        -1.83381         1.06818
H           2.61104        -0.44051         2.15140
H           4.85654         0.25996         1.27782
H           4.88051        -1.16467         0.22471
H           4.72665        -2.64465         2.17525
H           4.62833        -1.26333         3.27619
H           6.78432        -0.50426         2.46664
H           6.59819        -3.27156         2.99879
H           6.58798        -2.09115         4.33712
H           8.89429        -1.49158         3.53687
H           8.86176        -2.87317         2.43958
H           8.60935        -3.07024         5.49767
H           8.92189        -5.55552         5.11962
H           8.83004        -5.30802         3.40311
H           6.39361        -4.77711         3.64452
H           6.55832        -4.70099         5.39470
H           6.77815        -6.74932         3.45896
H          10.92328        -3.83469         3.63210
H          10.72680        -1.58119         5.71291
H          10.82915        -1.33957         3.95815
H          12.19071        -2.01662         4.81571
H          10.38827        -4.75004         6.38657

