%chk=CCCCCqCOrCqCCCrOC.chk
%NProcShared=20
# opt freq b3lyp/6-31g(2df,p)

Title Card Required 

0  1
C           0.96024         0.11859        -0.04713
C           2.47029         0.05864        -0.09240
C           2.89124        -1.36936        -0.44463
C           4.40041        -1.45965        -0.45318
C           5.07233        -2.82835        -0.61500
C           4.67537        -3.46277        -1.96179
O           3.26851        -3.68829        -2.06138
C           6.63805        -2.73866        -0.48010
C           7.16127        -2.20508         0.88616
C           6.87316        -0.74589         1.22966
C           7.45180        -0.29837         2.55078
O           7.14085        -4.08247        -0.67178
C           8.55623        -4.18029        -0.80358
H           0.61781         1.13769         0.14119
H           0.58167        -0.53374         0.74640
H           0.54304        -0.22338        -0.99933
H           2.88536         0.36760         0.87664
H           2.85779         0.75843        -0.84280
H           2.46046        -1.63132        -1.40987
H           2.50479        -2.05855         0.31741
H           4.57680        -1.15733         0.55777
H           4.84534        -0.72384        -1.13373
H           4.70135        -3.48471         0.18394
H           5.15157        -4.43383        -2.10812
H           4.96531        -2.80752        -2.78795
H           2.95656        -4.01779        -1.21107
H           7.02433        -2.11360        -1.29602
H           8.25270        -2.29262         0.90513
H           6.80677        -2.87262         1.68123
H           5.83244        -0.57152         1.43569
H           7.16861        -0.08991         0.40474
H           7.07272        -0.94089         3.35330
H           7.09532         0.71837         2.75385
H           8.53989        -0.30719         2.55018
H           8.81161        -5.20925        -1.07199
H           9.05581        -3.97334         0.14612
H           8.92696        -3.50868        -1.58310

