%chk=CCCCCNCqCCCqCrCrNNNO.chk
%NProcShared=20
# opt freq b3lyp/6-31g(2df,p)

Title Card Required 

0  1
C           0.93266        -0.00483         0.07305
C           2.44767         0.03871         0.04247
C           3.05355        -0.57993         1.28776
C           4.58825        -0.43714         1.24826
C           5.14702        -1.12630         2.47109
N           6.58405        -1.27952         2.60013
C           6.96282        -2.05513         3.79027
C           6.43114        -3.52662         3.81905
C           4.92114        -3.70941         3.96733
C           4.42612        -5.14371         4.02612
C           4.91860        -5.83969         5.27526
C           2.89348        -5.08534         3.94979
N           8.43797        -2.06836         3.79137
N           8.95225        -2.66015         4.99342
N          10.35779        -2.70035         4.96597
O          10.83778        -3.26476         6.20984
H           0.53247         0.47831        -0.82263
H           0.54413         0.52166         0.95046
H           0.56679        -1.03626         0.10033
H           2.78226         1.07765        -0.03751
H           2.81079        -0.49703        -0.84208
H           2.76072        -1.64043         1.34530
H           2.65260        -0.10515         2.19284
H           4.89615         0.60753         1.19923
H           4.95984        -0.95720         0.35495
H           4.78092        -2.09901         2.23049
H           4.68839        -0.74883         3.39416
H           7.01696        -0.35944         2.64576
H           6.61232        -1.52521         4.68835
H           6.85591        -4.02787         4.69099
H           6.79551        -4.06873         2.93788
H           4.39444        -3.40299         3.08419
H           4.54789        -3.10560         4.80296
H           4.79250        -5.67630         3.13817
H           4.60793        -5.29093         6.16939
H           6.01109        -5.90365         5.27858
H           4.52873        -6.85766         5.32298
H           2.48104        -4.51561         4.79028
H           2.45619        -6.08426         3.94413
H           2.56783        -4.57659         3.03081
H           8.75569        -1.09937         3.72950
H           8.63584        -3.63681         5.05606
H          10.75741        -1.75450         4.99995
H          10.65739        -4.21579         6.05997

