%chk=CCCCCCCCOCCCCOC1CCCOC1.chk
%NProcShared=20
# opt freq b3lyp/6-31g(2df,p)

Title Card Required 

0  1
C           0.89248         0.09101        -0.04304
C           2.41046         0.07914        -0.04191
C           2.93811        -1.34472         0.09363
C           4.46126        -1.36206         0.09527
C           4.97519        -2.79066         0.23124
C           6.49536        -2.80305         0.23239
C           7.02669        -4.22220         0.36761
C           8.54250        -4.19111         0.36517
O           9.02944        -5.52019         0.49443
C          10.45211        -5.50698         0.49573
C          10.93665        -6.93213         0.63820
C          12.45792        -6.97039         0.64591
C          12.91163        -8.41040         0.76036
O          14.32988        -8.47065         0.68582
C          14.87837        -9.77927         0.87467
C          14.15125       -10.87281         0.08087
C          14.74703       -12.24025         0.36490
C          14.80559       -12.48248         1.86823
O          15.55629       -11.45864         2.52188
C          14.96784       -10.16502         2.35755
H           0.52150         1.11531        -0.14056
H           0.49967        -0.32948         0.88805
H           0.49967        -0.49761        -0.87808
H           2.78004         0.69469         0.78618
H           2.78004         0.52739        -0.97128
H           2.56505        -1.95934        -0.73434
H           2.56506        -1.79207         1.02270
H           4.84024        -0.75159         0.92367
H           4.84023        -0.91884        -0.83343
H           4.60063        -3.40242        -0.59760
H           4.60067        -3.23503         1.16065
H           6.87007        -2.18869         1.05986
H           6.87013        -2.35592        -0.69614
H           6.66575        -4.85307        -0.45304
H           6.66532        -4.68683         1.29241
H           8.90698        -3.58716         1.20342
H           8.90794        -3.75881        -0.57288
H          10.81338        -4.90194         1.33380
H          10.81539        -5.07838        -0.44429
H          10.53849        -7.53834        -0.18509
H          10.53327        -7.37331         1.55722
H          12.86161        -6.37988         1.47595
H          12.85931        -6.52660        -0.27250
H          12.48013        -8.95949        -0.08159
H          12.55721        -8.84054         1.70108
H          15.90707        -9.72797         0.49210
H          14.17152       -10.64162        -0.98986
H          13.09204       -10.91539         0.36582
H          15.75773       -12.27938        -0.05761
H          14.14682       -13.01549        -0.12198
H          15.29558       -13.43888         2.06950
H          13.79904       -12.52624         2.30310
H          15.58495        -9.43772         2.89581
H          13.98509       -10.15216         2.84414

