%chk=CCCNqCCrCCqCrCqCrCCCCCN.chk
%NProcShared=20
# opt freq b3lyp/6-31g(2df,p)

Title Card Required 

0  1
C           0.69619        -0.22399        -0.11607
C           2.20289        -0.17980        -0.09520
C           2.88857        -1.49550         0.26520
N           4.35744        -1.33938         0.35349
C           4.77119        -0.39008         1.39601
C           4.55615         1.11380         1.29157
C           4.97951        -2.68182         0.58327
C           6.55112        -2.81275         0.58952
C           7.25313        -2.02603         1.72612
C           6.98990        -4.31376         0.71128
C           6.41690        -5.21328        -0.39397
C           8.52884        -4.41179         0.70264
C           9.06063        -5.80094         0.96031
C          10.57938        -5.74635         0.99828
C          11.10922        -7.14588         1.23975
C          12.62639        -7.14309         1.23663
N          13.10136        -8.49958         1.45705
H           0.32486         0.79556        -0.27517
H           0.32156        -0.55887         0.85684
H           0.31398        -0.87112        -0.90358
H           2.38657         0.54284         0.68176
H           2.60724         0.22254        -1.03187
H           2.63969        -2.22855        -0.51303
H           2.48882        -1.88605         1.21142
H           5.81798        -0.35371         1.28902
H           4.52413        -0.76226         2.40253
H           4.70592         1.44926         0.25815
H           5.31313         1.61423         1.90850
H           3.60593         1.46236         1.68146
H           4.61175        -3.31373        -0.23557
H           4.58710        -3.12619         1.50872
H           6.91488        -2.42973        -0.37374
H           6.75179        -2.19586         2.68352
H           7.37018        -0.96584         1.51894
H           8.30445        -2.24662         1.86634
H           6.62356        -4.69505         1.67458
H           6.76016        -4.88682        -1.38091
H           5.32579        -5.23858        -0.38957
H           6.72374        -6.25512        -0.25897
H           8.97249        -3.83097         1.50921
H           8.92356        -3.99999        -0.23455
H           8.74507        -6.49569         0.18042
H           8.67469        -6.16284         1.92156
H          10.92192        -5.06650         1.78993
H          10.95952        -5.34956         0.04838
H          10.72843        -7.81490         0.45774
H          10.72521        -7.51613         2.19887
H          13.00456        -6.48150         2.02377
H          12.99919        -6.77174         0.27670
H          12.76869        -8.83298         2.35851
H          14.11979        -8.49384         1.50454

