%chk=CCCqCqCrCOrC1CCCqCrCqCrC1.chk
%NProcShared=20
# opt freq b3lyp/6-31g(2df,p)

Title Card Required 

0  1
C           0.94134         0.19505         0.29952
C           2.41466        -0.08719         0.09085
C           2.90359        -1.57091         0.02033
C           2.19723        -2.50380        -1.04665
C           2.40835        -4.03863        -0.83823
C           0.68493        -2.41188        -1.26170
O           0.33335        -3.15581        -2.44038
C           4.51555        -1.50649        -0.05994
C           5.20716        -2.83301        -0.39820
C           5.06646        -3.22366        -1.88409
C           5.49609        -2.13247        -2.84913
C           7.01324        -2.18803        -2.88666
C           4.87962        -0.76287        -2.47198
C           5.31459         0.32536        -3.44148
C           5.13172        -0.42587        -0.99875
H           0.79396         1.22516         0.63593
H           0.49319        -0.48877         1.02216
H           0.40043         0.16475        -0.64434
H           2.94613         0.39910         0.92283
H           2.70257         0.44978        -0.81836
H           2.67643        -2.01881         0.99927
H           2.59301        -2.20560        -2.01516
H           1.78691        -4.42945        -0.03388
H           3.40366        -4.39620        -0.60517
H           2.16109        -4.56334        -1.77190
H           0.33750        -1.42013        -1.49876
H           0.14123        -2.81568        -0.40774
H           0.74248        -2.70249        -3.18289
H           4.84427        -1.23108         0.95646
H           4.86780        -3.60898         0.29436
H           6.27749        -2.74936        -0.16783
H           4.06045        -3.42754        -2.21504
H           5.56801        -4.17977        -2.06410
H           5.11513        -2.39945        -3.84538
H           7.44557        -1.90436        -1.92402
H           7.42050        -1.54802        -3.66660
H           7.33057        -3.21673        -3.09505
H           3.79460        -0.80203        -2.60527
H           6.39714         0.45745        -3.44806
H           4.84675         1.28317        -3.19485
H           4.99034         0.05230        -4.45345
H           4.77417         0.57752        -0.74624
H           6.21423        -0.37072        -0.81900

