%chk=CCCqCrCCqOCrC1CCqCrC1CCOO.chk
%NProcShared=20
# opt freq b3lyp/6-31g(2df,p)

Title Card Required 

0  1
C           0.85159        -0.09266         0.07587
C           2.36884         0.02029         0.00902
C           2.83749         0.72592        -1.28102
C           2.29294         2.14280        -1.40759
C           4.37418         0.74831        -1.36439
C           4.93611         1.37735        -2.66710
O           4.20344         0.80212        -3.75057
C           4.15694         1.55466        -4.94702
C           6.45750         1.12572        -2.79337
C           7.17259         1.74659        -4.02323
C           7.29933         0.31535        -4.66160
C           6.42463        -0.32468        -5.74626
C           7.09106        -0.25187        -3.21736
C           6.24730        -1.50357        -3.04607
C           6.32568        -2.04468        -1.63034
O           5.25704        -2.97676        -1.49243
O           5.19418        -3.32652        -0.08730
H           0.53962        -0.60626         0.98906
H           0.46964        -0.65369        -0.78354
H           0.37825         0.89251         0.08014
H           2.78989        -0.99396         0.05313
H           2.73917         0.55140         0.89366
H           2.46003         0.12558        -2.11991
H           2.64831         2.76303        -0.57948
H           1.20249         2.15827        -1.42547
H           2.61257         2.60567        -2.34445
H           4.63984        -0.29942        -1.31593
H           4.81963         1.22201        -0.47990
H           4.76092         2.45861        -2.62318
H           3.61208         0.96730        -5.69013
H           5.14226         1.70392        -5.36547
H           3.70128         2.53275        -4.81049
H           6.91734         1.50377        -1.86583
H           8.15274         2.17545        -3.76567
H           6.65780         2.55539        -4.54762
H           8.32628         0.19570        -5.03605
H           5.42353        -0.58766        -5.39696
H           6.86322        -1.27053        -6.08256
H           6.31875         0.31887        -6.62450
H           8.07783        -0.40050        -2.75249
H           6.57589        -2.28787        -3.73583
H           5.19983        -1.32333        -3.31249
H           6.24314        -1.25659        -0.87208
H           7.28329        -2.54097        -1.45697
H           4.53519        -4.02200        -0.18839

