%chk=CCCqCOOOrCCqCrC1CCCqCrCqCrqCrCC1.chk
%NProcShared=20
# opt freq b3lyp/6-31g(2df,p)

Title Card Required 

0  1
C           0.90487        -0.32867         0.15174
C           2.41462        -0.13571         0.09071
C           2.84042         1.06325        -0.79132
C           2.20762         2.35351        -0.28496
O           0.79997         2.34291        -0.36844
O           0.39144         3.61876         0.15934
O          -1.04454         3.70136         0.17401
C           4.38045         1.15036        -0.83977
C           4.99670         2.24696        -1.76062
C           4.66539         3.69040        -1.32278
C           6.53966         2.15167        -1.79191
C           7.06093         0.72069        -1.99989
C           8.58288         0.61908        -1.99447
C           9.18696         1.12918        -3.31300
C          10.36543         0.22904        -3.69159
C           9.55786         2.65196        -3.28622
C           9.62447         3.17828        -4.73799
C          10.90436         2.89448        -2.58309
C           8.52035         3.51230        -2.54410
C           7.09345         3.11207        -2.86847
H           0.64256        -1.24460         0.68189
H           0.48207        -0.36499        -0.85811
H           0.41952         0.47584         0.71006
H           2.86376        -1.05761        -0.29906
H           2.80079        -0.00175         1.10903
H           2.48575         0.86603        -1.81171
H           2.44674         3.16294        -0.94104
H           2.55520         2.58896         0.72892
H          -1.08180         4.61891         0.44875
H           4.70606         0.16520        -1.20018
H           4.79277         1.25003         0.17387
H           4.61724         2.07788        -2.77745
H           4.73345         3.79180        -0.23591
H           3.71066         4.02483        -1.71625
H           5.30587         4.47036        -1.72468
H           6.88957         2.47352        -0.80000
H           6.65023         0.30233        -2.92837
H           6.72128         0.07151        -1.18691
H           8.83147        -0.43935        -1.84928
H           8.99355         1.14340        -1.12389
H           8.44103         0.97383        -4.10602
H          11.13909         0.24122        -2.91848
H          10.80646         0.53461        -4.64306
H          10.03132        -0.80803        -3.80131
H          10.35240         2.62889        -5.33781
H           9.89858         4.23881        -4.76240
H           8.65317         3.08858        -5.24015
H          11.72822         2.39514        -3.09827
H          10.87460         2.52519        -1.55087
H          11.14534         3.96181        -2.54384
H           8.65810         4.57085        -2.80767
H           8.68227         3.48554        -1.45768
H           6.96960         2.67298        -3.86328
H           6.54712         4.04979        -2.95130

