%chk=CCCqOCCCCqCrCrOOCCqCrC.chk
%NProcShared=20
# opt freq b3lyp/6-31g(2df,p)

Title Card Required 

0  1
C           0.94820         0.12728         0.43501
C           2.43823         0.10492         0.08140
C           2.91377        -0.85808        -1.03292
O           2.49922        -0.47101        -2.34958
C           1.10205        -0.55925        -2.49879
C           0.62677        -0.16758        -3.87039
C          -0.90635        -0.12475        -3.83679
C          -1.49718         0.30592        -5.17613
C          -1.04670        -0.64173        -6.28496
C          -3.02242         0.33941        -5.09683
O           4.35366        -0.85662        -0.96559
O           4.80088        -1.88591        -1.90023
C           6.22139        -1.76896        -1.94954
C           6.75828        -2.71287        -3.03021
C           6.24068        -2.31396        -4.41423
C           8.28457        -2.73266        -3.01975
H           0.79975         0.56794         1.42331
H           0.51539        -0.87791         0.42764
H           0.35488         0.77595        -0.21575
H           2.97379        -0.16561         0.99874
H           2.75351         1.12344        -0.17380
H           2.57759        -1.88154        -0.82112
H           0.66331         0.21655        -1.88580
H           0.72830        -1.54081        -2.20428
H           1.02129        -0.88772        -4.59577
H           1.02637         0.81467        -4.13714
H          -1.23582         0.58181        -3.05716
H          -1.30064        -1.10410        -3.53873
H          -1.14223         1.31799        -5.40304
H          -1.33557        -1.67239        -6.05372
H           0.03932        -0.61809        -6.41516
H          -1.48440        -0.35735        -7.24391
H          -3.42985        -0.64802        -4.85543
H          -3.44605         0.65770        -6.05449
H          -3.36315         1.04242        -4.32855
H           6.62103        -2.04655        -0.96757
H           6.50696        -0.73142        -2.16341
H           6.39088        -3.72564        -2.82028
H           6.57508        -1.30665        -4.68519
H           5.14636        -2.32686        -4.44779
H           6.60322        -3.00872        -5.17908
H           8.69608        -1.74255        -3.24322
H           8.66887        -3.43566        -3.76650
H           8.66352        -3.04479        -2.04093

