%chk=CCdC1CCCqCCqOrCCCCrC1.chk
%NProcShared=20
# opt freq b3lyp/6-31g(2df,p)

Title Card Required 

0  1
C          -2.78285        -0.40394         0.02104
C          -1.64736         0.55600        -0.07477
C          -0.35744         0.20735        -0.05622
C           0.20572        -1.17427         0.11992
C           1.67448        -1.00058        -0.25359
C           2.01983         0.43438         0.16656
C           2.39693         0.50217         1.65617
C           2.81160         1.90804         2.09547
O           1.75141         2.84319         1.94040
C           3.20125         1.92778         3.56508
C           3.55445         3.35295         3.97734
C           3.91258         3.41261         5.44918
C           4.26095         4.83537         5.83762
C           0.75029         1.20801        -0.20635
H          -3.73066         0.13796        -0.04726
H          -2.76476        -0.93977         0.97388
H          -2.74662        -1.11854        -0.80644
H          -1.90975         1.60861        -0.18740
H          -0.28300        -1.91376        -0.51864
H           0.11518        -1.48442         1.16733
H           1.79400        -1.10435        -1.33945
H           2.30993        -1.75467         0.22230
H           2.87440         0.79841        -0.41705
H           3.23788        -0.18165         1.83857
H           1.56297         0.14958         2.27467
H           3.64861         2.25436         1.47825
H           0.98219         2.50012         2.42975
H           4.04264         1.25070         3.74774
H           2.35508         1.58225         4.17367
H           2.70758         4.02673         3.79280
H           4.38746         3.71577         3.36259
H           4.76004         2.74925         5.65110
H           3.06550         3.06186         6.05020
H           5.10982         5.19873         5.24946
H           4.52443         4.88269         6.89642
H           3.41247         5.50489         5.66037
H           0.81698         1.55690        -1.24120
H           0.52574         2.07653         0.40323

