%chk=CCqCCCqdOrCCONrOCCCO.chk
%NProcShared=20
# opt freq b3lyp/6-31g(2df,p)

Title Card Required 

0  1
C           0.95391         0.02938         0.01484
C           2.47831         0.08323         0.07104
C           2.94914         0.54242         1.45071
C           2.47724         1.93464         1.82575
C           3.02384         2.30325         3.18183
O           3.75100         1.53656         3.82036
C           2.63872         3.65731         3.71094
C           3.25947         3.83681         5.08050
O           2.96284         5.14312         5.57179
N           3.48360         5.23215         6.93098
O           2.98123        -1.23154        -0.21547
C           4.40653        -1.26600        -0.26946
C           4.89715        -2.66063        -0.59200
C           6.41807        -2.66853        -0.57434
O           6.90677        -3.96484        -0.87331
H           0.50824         1.01360         0.18772
H           0.56297        -0.66378         0.76811
H           0.60927        -0.32211        -0.96123
H           2.83566         0.77179        -0.70467
H           4.04323         0.56407         1.49325
H           2.64588        -0.19742         2.20449
H           1.38809         1.98580         1.88196
H           2.84072         2.65887         1.08852
H           1.54726         3.72943         3.76672
H           2.99282         4.42895         3.01867
H           4.34984         3.73281         5.01015
H           2.87724         3.07523         5.77243
H           3.20751         6.18192         7.18341
H           4.49123         5.28596         6.76863
H           4.82518        -1.01320         0.70731
H           4.76414        -0.54363        -1.01176
H           4.51155        -2.99488        -1.56104
H           4.50393        -3.37590         0.14158
H           6.80537        -2.36832         0.40647
H           6.81600        -1.97005        -1.31793
H           6.55582        -4.56850        -0.19612

