%chk=CCqCrCCCOCqCOOrCqCrO.chk
%NProcShared=20
# opt freq b3lyp/6-31g(2df,p)

Title Card Required 

0  1
C           0.99293        -0.00405         0.11017
C           2.51962        -0.01244         0.16347
C           2.99464        -0.45972         1.54468
C           3.07081        -0.92647        -0.93092
C           4.59860        -0.95127        -0.95353
C           5.05095        -1.84839        -2.07973
O           6.46875        -1.85245        -2.16604
C           6.94891        -2.74883        -3.18792
C           6.48840        -2.32528        -4.59981
O           5.10175        -2.65051        -4.79291
O           4.63613        -1.78787        -5.86955
C           8.49092        -2.76233        -3.11561
C           9.00882        -3.22523        -1.75672
O           9.03473        -3.62823        -4.11700
H           0.58553         0.66392         0.87516
H           0.58629        -1.00691         0.28106
H           0.63573         0.34293        -0.86545
H           2.87697         1.00845        -0.02126
H           2.69098        -1.49315         1.74437
H           2.58215         0.18325         2.32586
H           4.08379        -0.40613         1.63312
H           2.70052        -0.58482        -1.90802
H           2.68845        -1.94760        -0.79884
H           5.02393        -1.32336        -0.01706
H           4.99524         0.06084        -1.10026
H           4.62588        -1.42631        -2.98972
H           4.68381        -2.86968        -1.92459
H           6.56899        -3.75550        -2.96903
H           7.02742        -2.87500        -5.37377
H           6.64552        -1.24791        -4.73176
H           3.69320        -1.80687        -5.62633
H           8.87569        -1.75338        -3.30155
H           8.67437        -4.24528        -1.53916
H           8.67757        -2.56757        -0.94757
H          10.10429        -3.24769        -1.75638
H           8.70894        -4.52388        -3.94653

