%chk=CCqCrCNN1CC1CCqCrCqCrCO.chk
%NProcShared=20
# opt freq b3lyp/6-31g(2df,p)

Title Card Required 

0  1
C           1.03871        -0.03383        -0.03495
C           2.57085        -0.07616        -0.00423
C           3.05449        -0.54883         1.36347
C           3.04272        -1.01577        -1.11798
N           4.49099        -1.14138        -1.20789
N           5.03311        -1.88805        -2.29801
C           5.00975        -3.31919        -1.98636
C           4.08663        -2.72635        -3.02161
C           4.31658        -2.87532        -4.49219
C           3.23304        -2.12154        -5.30791
C           3.26204        -0.61883        -4.98292
C           3.39309        -2.34936        -6.83413
C           3.35952        -3.84066        -7.19766
C           2.30426        -1.60739        -7.63198
O           2.49959        -1.77950        -9.03051
H           0.64650         0.62391         0.74521
H           0.61656        -1.03423         0.11770
H           0.67608         0.33315        -1.00213
H           2.95180         0.93593        -0.19266
H           2.72905        -1.57707         1.55522
H           2.66170         0.09232         2.15676
H           4.14625        -0.52132         1.43170
H           2.63473        -0.61914        -2.04926
H           2.58986        -1.99717        -0.93734
H           4.93185        -1.37849        -0.32113
H           4.56126        -3.65277        -1.05683
H           5.85253        -3.90633        -2.32285
H           3.03485        -2.79300        -2.78886
H           4.28036        -3.94835        -4.70121
H           5.31430        -2.52340        -4.78408
H           2.25031        -2.50826        -5.00253
H           4.21198        -0.16523        -5.27940
H           3.12943        -0.43327        -3.92269
H           2.44384        -0.07519        -5.46101
H           4.37221        -1.96180        -7.14586
H           2.40914        -4.29331        -6.89538
H           4.17094        -4.39711        -6.72173
H           3.48203        -3.98735        -8.27480
H           2.31738        -0.53016        -7.45086
H           1.30891        -1.98053        -7.37053
H           3.37046        -1.41122        -9.24046

