%chk=CCqCrCCCCCCCCCCqCrCO.chk
%NProcShared=20
# opt freq b3lyp/6-31g(2df,p)

Title Card Required 

0  1
C           0.99352         0.11005         0.03067
C           2.51983         0.10060         0.06834
C           3.00353         0.00101         1.51674
C           3.04824        -1.05406        -0.79262
C           4.56980        -1.07813        -0.83697
C           5.07013        -2.23494        -1.67946
C           6.58879        -2.24006        -1.66972
C           7.09936        -3.39925        -2.50047
C           8.61408        -3.40223        -2.50759
C           9.11884        -4.55780        -3.35437
C          10.63498        -4.55750        -3.34525
C          11.18756        -5.72152        -4.15662
C          12.72214        -5.75270        -4.14385
C          13.27639        -5.88912        -2.72080
C          13.21553        -6.90265        -5.02796
O          14.63678        -6.92302        -5.08309
H           0.59804         0.94512         0.61699
H           0.58441        -0.81951         0.44121
H           0.62922         0.21622        -0.99649
H           2.88122         1.04685        -0.35441
H           2.69943        -0.95025         1.96656
H           2.59420         0.81576         2.12064
H           4.09290         0.07504         1.58759
H           2.66240        -0.95588        -1.81600
H           2.67611        -2.01181        -0.40687
H           4.98360        -1.19405         0.16968
H           4.94653        -0.12946        -1.23827
H           4.69807        -2.14730        -2.70680
H           4.69443        -3.18236        -1.27335
H           6.95930        -2.32687        -0.64007
H           6.97021        -1.29240        -2.06997
H           6.72201        -3.31702        -3.52661
H           6.72652        -4.34533        -2.08925
H           8.99180        -3.49328        -1.48091
H           8.99109        -2.45194        -2.90578
H           8.74344        -4.46823        -4.38026
H           8.74335        -5.50526        -2.94813
H          10.96113        -4.62402        -2.30270
H          11.01385        -3.60986        -3.74686
H          10.82964        -5.63690        -5.19124
H          10.79018        -6.66563        -3.76261
H          13.10044        -4.80810        -4.55655
H          12.90062        -6.79985        -2.24261
H          12.99724        -5.03750        -2.09331
H          14.36918        -5.92409        -2.72158
H          12.83965        -6.79995        -6.05144
H          12.87530        -7.86719        -4.63876
H          14.92933        -6.05208        -5.38719

