%chk=CCqCCCCOrCOCqdOrNqCrC.chk
%NProcShared=20
# opt freq b3lyp/6-31g(2df,p)

Title Card Required 

0  1
C           0.94405         0.06014         0.03821
C           2.47845         0.08992         0.00001
C           2.97578         0.86536        -1.23160
C           2.48694         0.24801        -2.53967
C           2.98552         1.03536        -3.73871
C           2.46888         0.41013        -5.02409
O           2.93990         1.14888        -6.13906
C           3.04004         0.71421         1.29364
O           4.48396         0.69405         1.28116
C           5.08015         1.25094         2.37866
O           4.43933         1.72129         3.31569
N           6.46916         1.23358         2.33272
C           7.23602         0.68944         1.22351
C           7.23297         1.78215         3.44435
H           0.52271        -0.43756        -0.84159
H           0.53439         1.07588         0.06977
H           0.57665        -0.49217         0.90676
H           2.84830        -0.94123        -0.07700
H           4.07227         0.88644        -1.23889
H           2.63795         1.90768        -1.16973
H           1.39321         0.24169        -2.58082
H           2.82131        -0.79470        -2.60288
H           4.08090         1.06960        -3.74902
H           2.64585         2.07668        -3.67123
H           1.37360         0.40035        -5.04651
H           2.82054        -0.62205        -5.11869
H           2.60953         2.05836        -6.04260
H           2.68181         0.13992         2.15626
H           2.69094         1.75073         1.38072
H           6.60104         0.29904         0.42687
H           7.87318        -0.11924         1.59623
H           7.87285         1.47931         0.81156
H           6.58851         2.17151         4.23675
H           7.86838         2.59592         3.07963
H           7.86881         0.99694         3.86654

