%chk=CCqCrOOCC1CC1CCCCN.chk
%NProcShared=20
# opt freq b3lyp/6-31g(2df,p)

Title Card Required 

0  1
C           0.94607         0.04210         0.08690
C           2.46808         0.04615         0.05525
C           2.97862        -0.72075        -1.15934
O           2.88960         1.41084        -0.01109
O           4.33732         1.38739         0.15952
C           4.75450         2.74382         0.05186
C           6.24810         2.76877         0.02801
C           7.00115         3.98723         0.49049
C           7.02851         2.72822         1.31959
C           8.27917         1.90223         1.42168
C           8.04844         0.68644         2.32183
C           9.31109        -0.15909         2.47683
C           9.05465        -1.35553         3.39161
N          10.26926        -2.14891         3.53270
H           0.55102        -0.97731         0.12978
H           0.53744         0.54032        -0.79959
H           0.57806         0.59743         0.95623
H           2.84980        -0.40282         0.98031
H           2.65311        -0.23887        -2.08755
H           2.62354        -1.75536        -1.15211
H           4.07342        -0.73730        -1.18190
H           4.35392         3.30188         0.90550
H           4.36402         3.18260        -0.87306
H           6.63771         2.23518        -0.83337
H           6.43333         4.82799         0.87705
H           7.89158         4.27416        -0.05721
H           6.48320         2.76295         2.25852
H           9.08151         2.52077         1.84011
H           8.61221         1.57194         0.42947
H           7.23629         0.07357         1.91112
H           7.71670         1.02535         3.31167
H          10.11685         0.45906         2.89271
H           9.64402        -0.50565         1.49064
H           8.25506        -1.98273         2.98198
H           8.73422        -1.01250         4.38150
H          10.55369        -2.50215         2.61995
H          10.07339        -2.96711         4.10765

