%chk=CCqdOrNCCC1CdCqOrC2dCqO2rC1dO.chk
%NProcShared=20
# opt freq b3lyp/6-31g(2df,p)

Title Card Required 

0  1
C           0.97909        -0.01039        -0.05336
C           2.48241        -0.08738        -0.00530
O           3.07277        -1.05093         0.45478
N           3.13185         1.01767        -0.50925
C           4.58130         1.04843        -0.51312
C           5.09756         2.35523        -1.07182
C           6.63239         2.37987        -1.16431
C           7.10354         3.80892        -1.26694
C           7.09582         4.41386        -2.46579
O           7.44091         5.72595        -2.63236
C           6.81106         3.69341        -3.68832
C           6.79359         2.34814        -3.74786
O           5.62605         3.06317        -3.91811
C           7.18893         1.73483        -2.44017
O           8.04949         0.85903        -2.40736
H           0.57110        -0.92379         0.39040
H           0.62802         0.06121        -1.08587
H           0.62170         0.84504         0.52569
H           2.60142         1.77255        -0.92787
H           4.93762         0.20486        -1.11456
H           4.93102         0.91266         0.51486
H           4.73168         3.19665        -0.46891
H           4.61605         2.47657        -2.04412
H           7.09195         1.90210        -0.28963
H           7.44962         4.30381        -0.36541
H           7.63447         6.09930        -1.75514

