%chk=CCSCCCqOrqONrCqCrC.chk
%NProcShared=20
# opt freq b3lyp/6-31g(2df,p)

Title Card Required 

0  1
C           0.95035         0.11192        -0.04122
C           2.45917         0.06656        -0.15585
S           2.87036        -1.00072        -1.57493
C           4.67253        -0.98086        -1.38988
C           5.33393        -1.97366        -2.34601
C           6.88501        -1.97860        -2.34126
O           7.38407        -0.66784        -2.60468
O           7.37510        -2.49402        -1.07588
N           7.24210        -1.51314         0.00730
C           7.44026        -2.94341        -3.43796
C           6.97509        -2.58009        -4.85410
C           8.97866        -2.99485        -3.43527
H           0.64643         0.79935         0.75318
H           0.54723        -0.87812         0.19954
H           0.49551         0.45601        -0.97604
H           2.89327        -0.33077         0.76954
H           2.86390         1.06987        -0.32341
H           4.82245        -1.25793        -0.35158
H           5.03934         0.03654        -1.55252
H           4.98203        -1.71041        -3.34720
H           4.98413        -2.98791        -2.11243
H           7.26602        -0.20137        -1.76732
H           7.92753        -1.87867         0.67582
H           6.36794        -1.83255         0.42920
H           7.09104        -3.96001        -3.21003
H           7.29101        -1.56836        -5.12794
H           5.88805        -2.63830        -4.95232
H           7.38856        -3.27522        -5.59217
H           9.41215        -2.01485        -3.66063
H           9.34383        -3.70027        -4.19078
H           9.36841        -3.32600        -2.46766

