%chk=CdC1NCCCCCCCC1O.chk
%NProcShared=20
# opt freq b3lyp/6-31g(2df,p)

Title Card Required 

0  1
C           1.08574        -0.11542        -0.00535
C           2.42333        -0.04870        -0.02661
N           3.07520         1.17225        -0.19753
C           2.75351         2.37679         0.57173
C           3.74359         2.67668         1.71267
C           3.71384         1.65283         2.86975
C           4.71691         0.55547         2.56467
C           4.65580        -0.71833         3.39104
C           4.37385        -1.96258         2.52241
C           3.10081        -1.83089         1.67429
C           3.24667        -1.33662         0.19857
O           4.59203        -1.21473        -0.27151
H           0.47704         0.76861        -0.17195
H           0.55824        -1.04566         0.18227
H           4.00993         1.10895        -0.59124
H           1.74888         2.30729         1.00188
H           2.73874         3.22715        -0.11867
H           3.48137         3.65575         2.12888
H           4.76062         2.77052         1.30899
H           2.70291         1.23965         2.97275
H           3.97427         2.12938         3.81980
H           5.74016         0.93616         2.49374
H           4.46332         0.29686         1.56621
H           3.90214        -0.64047         4.18189
H           5.62278        -0.86210         3.88886
H           4.25682        -2.81866         3.20039
H           5.23858        -2.19879         1.89371
H           2.37835        -1.21016         2.22456
H           2.61226        -2.81403         1.63421
H           2.82863        -2.11593        -0.44776
H           5.05509        -0.52777         0.22513

