%chk=CdC1CCCCCqCrCqCrqCqOrCOrCC1C.chk
%NProcShared=20
# opt freq b3lyp/6-31g(2df,p)

Title Card Required 

0  1
C           1.00927        -0.27365         0.11002
C           2.37892        -0.23194         0.03217
C           3.11207        -1.16441        -0.90645
C           4.07591        -0.62883        -2.00946
C           3.54875         0.40335        -3.01439
C           4.06101         1.88126        -2.99322
C           3.90508         2.86921        -1.79283
C           4.99372         2.59350        -0.80912
C           2.50359         2.85828        -1.04741
C           1.42899         2.08267        -1.83599
C           1.98692         4.35006        -1.08204
O           2.10865         4.87996        -2.42042
C           0.51790         4.51598        -0.63856
O           0.08543         5.86849        -0.68383
C           2.60426         2.28981         0.48632
C           3.14452         0.78686         0.84907
C           4.68425         0.40449         1.02040
H           0.42890        -0.91812        -0.53334
H           0.44674         0.43527         0.70385
H           2.37263        -1.79670        -1.41563
H           3.67798        -1.86192        -0.27226
H           4.32569        -1.52475        -2.59730
H           5.05058        -0.32786        -1.63067
H           2.47013         0.30713        -3.10125
H           3.84194         0.03932        -4.00726
H           3.58827         2.38591        -3.84471
H           5.13093         1.84243        -3.24086
H           4.16738         3.87630        -2.14613
H           4.65406         1.61158        -0.65593
H           4.96554         3.15320         0.13061
H           6.01842         2.46540        -1.14823
H           1.42233         2.31970        -2.90335
H           0.41260         2.18328        -1.45806
H           1.57787         1.03049        -1.74842
H           2.63382         4.98505        -0.46739
H           1.59099         4.32315        -3.02714
H           0.37643         4.13926         0.37575
H          -0.16710         3.99467        -1.31057
H           0.78311         6.40643        -0.27935
H           1.57720         2.33347         0.88343
H           3.12889         3.01722         1.12096
H           2.81949         0.65951         1.89520
H           5.31610         0.32208         0.13049
H           4.81240        -0.61603         1.39067
H           5.21715         1.11289         1.66019

