%chk=CdCCqNOrNCqCrC1CCdNC1.chk
%NProcShared=20
# opt freq b3lyp/6-31g(2df,p)

Title Card Required 

0  1
C           0.90654         0.09605        -0.20896
C           2.23077         0.07053        -0.01046
C           2.92333         0.72334         1.17420
N           2.47416         0.01055         2.36717
O           1.07609         0.32520         2.62046
N           4.37233         0.56050         1.07327
C           5.21936         1.26113         2.06715
C           5.08518         0.75614         3.51880
C           6.73441         1.11121         1.72842
C           7.15648        -0.33850         1.54043
C           7.15112        -0.40921         0.05272
N           7.15578         0.70506        -0.60497
C           7.16146         1.76717         0.42010
H           0.42297        -0.48921        -0.98398
H           0.25063         0.65946         0.45323
H           2.84293        -0.52642        -0.68611
H           2.67726         1.79200         1.19927
H           2.85990         0.48869         3.16076
H           0.66552        -0.51109         2.32465
H           4.64847         0.89761         0.14453
H           4.97507         2.33102         2.04586
H           5.11208        -0.33909         3.56143
H           4.18896         1.11690         4.02127
H           5.89132         1.13648         4.15196
H           7.30435         1.56873         2.54864
H           6.46671        -1.07894         1.95217
H           8.16242        -0.54313         1.91602
H           7.16729        -1.39017        -0.44474
H           6.49355         2.58363         0.13005
H           8.17603         2.17652         0.50549

