%chk=CdCCCCqCCrOCqCOrOC.chk
%NProcShared=20
# opt freq b3lyp/6-31g(2df,p)

Title Card Required 

0  1
C           1.04701         0.13675        -0.06471
C           2.36826         0.26626        -0.01577
C           3.18569        -0.75369         0.69965
C           4.71029        -0.70892         0.56769
C           5.34038        -1.96624         1.23543
C           4.79327        -3.20285         0.49586
C           3.44394        -3.76743         0.90079
O           6.78192        -1.93143         1.11154
C           7.55095        -2.86210         1.93488
C           7.34204        -4.36400         1.56364
O           6.30370        -5.02996         2.29984
O           8.94824        -2.54439         1.77221
C           9.81333        -3.39440         2.52478
H           0.43139         0.79125        -0.67694
H           0.53018        -0.66493         0.47209
H           2.88509         1.01055        -0.61888
H           2.86225        -1.63856         0.17171
H           2.88840        -0.85021         1.75161
H           5.11080         0.22164         0.98603
H           4.98372        -0.70034        -0.49656
H           5.09442        -1.95369         2.30550
H           5.40663        -4.03951         0.70159
H           4.94746        -3.10954        -0.58447
H           3.23207        -3.56645         1.95469
H           3.46108        -4.85133         0.75680
H           2.61758        -3.42925         0.27754
H           7.27858        -2.66799         2.97981
H           8.18206        -5.00988         1.76596
H           7.21877        -4.45394         0.47413
H           5.71675        -4.37183         2.70551
H          10.84148        -3.04661         2.42673
H           9.83874        -4.41168         2.12712
H           9.51542        -3.41521         3.57660

