%chk=CdCCCCqCCCrCCCCC.chk
%NProcShared=20
# opt freq b3lyp/6-31g(2df,p)

Title Card Required 

0  1
C           1.04288        -0.20882        -0.13443
C           2.37112        -0.29048        -0.24101
C           3.16020         0.96025        -0.41665
C           4.67551         0.89142        -0.27516
C           5.38910         2.26243        -0.44378
C           5.02070         3.31759         0.63758
C           3.57518         3.79323         0.63897
C           3.25800         4.80573         1.70715
C           6.91653         2.00587        -0.42394
C           7.72779         3.27472        -0.67572
C           9.22064         3.00246        -0.62975
C           9.98745         4.30204        -0.84988
C          11.47932         4.04792        -0.79706
H           0.43836        -1.06800         0.13347
H           0.52420         0.74499        -0.25962
H           2.89872        -1.21291        -0.01850
H           2.79600         1.47074         0.45409
H           2.87099         1.51276        -1.31851
H           5.06013         0.18917        -1.02464
H           4.93133         0.47901         0.70909
H           5.13380         2.66836        -1.43252
H           5.61362         4.22422         0.48686
H           5.29627         2.92432         1.62359
H           2.90928         3.01692         0.95779
H           3.27083         4.12013        -0.36073
H           3.49965         4.38032         2.68777
H           2.17738         4.98798         1.68954
H           3.79341         5.74069         1.56183
H           7.17600         1.26313        -1.19045
H           7.20535         1.57163         0.54221
H           7.52203         4.02668         0.09036
H           7.44702         3.70621        -1.64378
H           9.49166         2.26477        -1.39286
H           9.48469         2.57944         0.34767
H           9.71316         5.03658        -0.08225
H           9.71832         4.73519        -1.82049
H          11.76644         3.64376         0.17885
H          12.02904         4.97805        -0.96194
H          11.77300         3.32880        -1.56782

