%chk=CdCdCCC1dCCdCCqCNrdCCqNCrC1.chk
%NProcShared=20
# opt freq b3lyp/6-31g(2df,p)

Title Card Required 

0  1
C           1.14620        -0.02875        -0.08808
C           2.47478        -0.04403        -0.06626
C           3.82776        -0.01931        -0.09733
C           4.94027        -0.73082         0.86147
C           6.91764        -0.61855         0.93528
C           6.88635        -1.39052         1.98361
C           8.13482        -1.57064         2.29057
C           9.20992        -1.95221         2.77983
C          10.50760        -1.05540         2.18106
C          11.38965        -0.23960         0.50740
N          10.51488        -0.00606        -0.51515
C          11.13663        -1.92472         2.94811
C          10.93604        -1.78156         1.45432
N          12.66192        -2.12449         2.47082
C          14.52326        -2.14348         2.99473
C           8.93421        -0.77933         0.57667
H           0.54496         0.47754        -0.85741
H           0.53712        -0.52793         0.67276
H           4.27909         0.52277        -0.89874
H           4.46945        -1.76938         0.93017
H           4.46343        -0.35536         1.86254
H           6.23572        -1.87358         2.61120
H           8.74418        -0.73862         2.16839
H           8.94557        -2.55961         3.57432
H          12.02768        -1.15501        -0.04452
H          11.98897         0.47355         1.06175
H          10.07052        -0.88984        -0.76760
H          10.54997         0.71707        -1.15649
H          11.02121        -2.65971         3.77089
H          12.24086        -1.17168         1.51020
H          12.73083        -3.02125         3.08118
H          15.16849        -1.25595         3.34542
H          15.20084        -2.76808         2.34709
H          15.13473        -2.82362         4.00343
H           8.23430        -0.79369        -0.55678
H           8.34311         0.51337         0.28136

