%chk=CdCqCCrCCqCCOOrCqOrCC.chk
%NProcShared=20
# opt freq b3lyp/6-31g(2df,p)

Title Card Required 

0  1
C           0.85005        -0.17128        -0.03642
C           2.16061         0.05170        -0.10144
C           2.70012         1.43725         0.22996
C           1.80759         2.44831         0.92920
C           3.09370        -1.12072        -0.49122
C           4.64426        -1.03370        -0.28034
C           5.13667        -1.06451         1.21679
C           4.55242         0.03000         2.04177
O           4.88946         0.27993         3.38635
O           4.05511         1.46884         3.67224
C           5.37555        -2.20453        -0.99652
O           4.97090        -2.32295        -2.35815
C           6.90026        -2.01256        -0.93792
C           7.65958        -3.18580        -1.51166
H           0.15452         0.60403         0.28482
H           0.40164        -1.12909        -0.29596
H           3.35191         1.84226        -0.54731
H           3.33784         1.35254         1.06146
H           1.08678         2.89212         0.25137
H           2.43485         3.23440         1.37413
H           1.30094         1.97026         1.77967
H           2.89152        -1.31139        -1.55682
H           2.75078        -2.02755         0.03101
H           4.95846        -0.10288        -0.77544
H           6.21175        -0.89324         1.27121
H           4.92602        -2.03610         1.66824
H           3.48107        -0.17789         2.07188
H           4.91237         0.92764         1.52309
H           4.23562         1.52579         4.62197
H           5.10187        -3.14680        -0.50616
H           5.25689        -1.52654        -2.83602
H           7.25655        -1.91559         0.08872
H           7.17873        -1.09261        -1.46602
H           7.41027        -4.09708        -0.95905
H           8.73395        -3.00738        -1.40556
H           7.42743        -3.32953        -2.56768

