%chk=CdCqCrCCdC1SC2dCCdCqCC1CrC2CCC.chk
%NProcShared=20
# opt freq b3lyp/6-31g(2df,p)

Title Card Required 

0  1
C           0.98377         0.04971        -0.14323
C           2.32435         0.01334        -0.19941
C           3.08157         0.35183        -1.44698
C           3.05401        -0.30986         1.06920
C           4.53832        -0.30767         0.99634
C           5.36647        -0.68340         1.98301
S           4.69972        -1.43007         3.67044
C           4.50158         0.13089         4.77914
C           5.38002         0.56904         5.76197
C           6.65534         0.92213         5.15639
C           6.37493         1.07762         3.91275
C           7.28883        -0.13573         3.20642
C           6.86182        -0.32967         1.80163
C           7.38694         0.99612         1.15768
C           4.58873         1.28431         3.85344
C           3.62969         2.50330         4.53929
C           2.04669         2.71730         4.43530
C           1.66303         4.02526         5.20643
H           0.38375         0.29706        -1.00811
H           0.46434        -0.15660         0.79099
H           2.41311         0.55824        -2.28530
H           3.73130        -0.48250        -1.73047
H           3.69874         1.24606        -1.29399
H           2.72263        -1.27144         1.46785
H           2.73692         0.48017         1.75562
H           5.00770         0.14145         0.12298
H           5.24327         1.61069         6.15861
H           7.58283         0.51090         5.61354
H           7.21964        -1.12434         3.71321
H           8.37304         0.04889         3.26813
H           7.36088        -1.15869         1.26949
H           7.16916         1.87526         1.77872
H           7.02049         1.21424         0.15901
H           8.49059         0.96875         1.12117
H           4.03599         0.99007         2.98480
H           4.08182         3.44981         4.25215
H           3.66835         2.40545         5.62777
H           1.46444         1.91034         4.90935
H           1.68359         2.82105         3.40731
H           1.88962         3.94412         6.27828
H           0.59592         4.27996         5.13211
H           2.22462         4.88148         4.81721

