%chk=CdCqCCCqCCrCOrCqCrCO.chk
%NProcShared=20
# opt freq b3lyp/6-31g(2df,p)

Title Card Required 

0  1
C           0.85811        -0.09316         0.24187
C           2.19454        -0.02059         0.22448
C           2.91857         0.78438        -0.82068
C           2.09664         1.49799        -1.88615
C           2.92560         2.24417        -2.94504
C           3.82758         1.32824        -3.81088
C           4.97999         0.62712        -3.09977
C           1.92176         2.99348        -3.84844
O           2.58643         3.78303        -4.82226
C           3.08377        -0.88683         1.13707
C           2.73278        -2.37503         0.97731
C           4.61680        -0.72649         0.93247
O           5.35724        -1.47851         1.88932
H           0.24034         0.44193        -0.47678
H           0.31865        -0.73525         0.92995
H           3.45794        -0.00157        -1.32019
H           3.63009         1.48549        -0.37074
H           1.43128         2.21579        -1.38930
H           1.46314         0.76499        -2.40156
H           3.56335         2.98981        -2.45145
H           4.28224         1.93641        -4.60089
H           3.20566         0.57567        -4.30981
H           5.49465         1.30109        -2.40811
H           5.69882         0.23402        -3.82105
H           4.66435        -0.26891        -2.56925
H           1.27871         3.65723        -3.25886
H           1.27008         2.28515        -4.37290
H           3.17058         4.39837        -4.34853
H           2.86636        -0.59622         2.17293
H           2.98797        -2.73200        -0.02774
H           1.66841        -2.56594         1.14038
H           3.28059        -2.98608         1.70132
H           4.93151         0.31769         1.02736
H           4.92654        -1.08175        -0.05760
H           5.09026        -1.16778         2.77031

