%chk=COC1CCC2qOOrCCCCCCOC12.chk
%NProcShared=20
# opt freq b3lyp/6-31g(2df,p)

Title Card Required 

0  1
C           1.23438         0.12414        -0.08287
O           2.63721         0.26783         0.28972
C           2.90943        -0.68817         1.30446
C           3.45557        -1.95516         0.70146
C           3.00051        -2.86811         1.80920
C           3.80557        -2.28138         3.00689
O           5.12968        -2.94640         2.86473
O           5.27139        -4.01140         3.89463
C           3.08103        -2.77977         4.27072
C           3.87417        -2.52783         5.54677
C           3.24331        -1.40338         6.32700
C           4.10156        -0.15756         6.19006
C           3.34616         0.95459         5.48794
C           4.01412         1.23328         4.15666
O           3.23840         0.45554         3.25830
C           3.86895        -0.59450         2.53142
H           1.05937         0.39695        -1.12667
H           0.63652         0.77541         0.56443
H           0.86727        -0.90872         0.04549
H           1.93883        -0.78365         1.81639
H           4.56024        -1.90214         0.66931
H           3.14272        -2.18887        -0.31022
H           3.16653        -3.91824         1.58462
H           1.91710        -2.74025         1.98493
H           5.50571        -4.78542         3.30394
H           2.97254        -3.87804         4.19821
H           2.04295        -2.43263         4.32163
H           4.92155        -2.30289         5.31517
H           3.91415        -3.43325         6.16565
H           3.16692        -1.69059         7.37743
H           2.21443        -1.24155         5.98827
H           5.03837        -0.36785         5.65692
H           4.41514         0.17435         7.18107
H           3.31061         1.83577         6.13051
H           2.29934         0.67516         5.29520
H           5.08508         1.00303         4.10741
H           3.91289         2.30616         3.93636
H           4.87527        -0.28876         2.21012

