%chk=COCCCCC1CCCCCOCqCrC1.chk
%NProcShared=20
# opt freq b3lyp/6-31g(2df,p)

Title Card Required 

0  1
C           0.87885         0.01323        -0.01949
O           2.29746         0.04578        -0.06825
C           2.71850         0.86132        -1.15247
C           4.22360         0.91491        -1.18221
C           4.67235         1.82224        -2.32615
C           6.16058         2.02342        -2.18507
C           6.88494         2.60806        -3.40184
C           8.07834         3.46781        -2.92345
C           9.33102         2.73940        -2.41330
C           9.13928         1.69711        -1.31000
C           9.54882         0.26364        -1.67890
C           9.07100        -0.31378        -3.01910
O           7.65411        -0.38329        -3.09181
C           7.03284         0.11863        -4.27944
C           7.36634        -0.75227        -5.48822
C           7.29724         1.61574        -4.52686
H           0.57187        -0.61366         0.81879
H           0.48355        -0.40985        -0.94817
H           0.48639         1.02448         0.12755
H           2.32351         1.87511        -1.02225
H           2.34816         0.44488        -2.09558
H           4.63885        -0.09564        -1.30287
H           4.60705         1.27545        -0.21728
H           4.17511         2.79676        -2.26093
H           4.40382         1.37744        -3.28890
H           6.58320         1.06666        -1.89417
H           6.29918         2.68174        -1.31790
H           6.18601         3.32042        -3.86571
H           7.72713         4.15528        -2.14011
H           8.38391         4.11878        -3.75308
H           9.99992         3.51610        -2.01964
H           9.87626         2.31340        -3.26126
H           8.13886         1.70030        -0.88067
H           9.75053         1.99980        -0.44963
H           9.20445        -0.39059        -0.86986
H          10.64566         0.22357        -1.67288
H           9.43446        -1.34573        -3.08747
H           9.51351         0.22513        -3.85644
H           5.95384         0.00084        -4.12516
H           8.44400        -0.82467        -5.65836
H           6.89308        -0.36967        -6.39816
H           7.00236        -1.77219        -5.31905
H           6.76448         1.91181        -5.44123
H           8.35221         1.76360        -4.78284

