%chk=COCCCCqOrOCqCrqCrC.chk
%NProcShared=20
# opt freq b3lyp/6-31g(2df,p)

Title Card Required 

0  1
C           0.91070         0.06222        -0.03533
O           2.32908         0.08922        -0.07716
C           2.77998         0.50868        -1.36051
C           4.28970         0.51035        -1.35439
C           4.84461         0.93869        -2.71444
C           6.36340         0.85977        -2.66943
O           6.70366        -0.47739        -2.35255
O           6.94138         1.23471        -3.91247
C           8.38289         1.31123        -3.93259
C           8.91187         2.32585        -2.90970
C           9.02711        -0.06776        -3.72719
C           8.78056         1.79281        -5.33754
H           0.59754        -0.26424         0.95841
H           0.52566        -0.64211        -0.77898
H           0.51274         1.06370        -0.22343
H           2.40599         1.51530        -1.57340
H           2.41397        -0.18784        -2.12303
H           4.63941        -0.49462        -1.08294
H           4.66426         1.17278        -0.56289
H           4.51743         1.95389        -2.96923
H           4.45677         0.27643        -3.49875
H           6.69946         1.52511        -1.87166
H           6.39108        -0.99876        -3.10501
H           8.66780         2.04288        -1.88147
H           8.46830         3.31379        -3.07965
H          10.00086         2.41485        -2.96401
H           8.90528        -0.43168        -2.70357
H          10.10443        -0.04500        -3.91022
H           8.56900        -0.80701        -4.39566
H           8.37219         2.78654        -5.55064
H           8.39317         1.11915        -6.11032
H           9.87097         1.84180        -5.44222

