%chk=COCqCOrCqCrCqCrC.chk
%NProcShared=20
# opt freq b3lyp/6-31g(2df,p)

Title Card Required 

0  1
C           0.88080         0.18535         0.23258
O           2.28923         0.04033         0.06992
C           2.68890        -1.20352        -0.55652
C           2.07393        -1.29443        -1.97220
O           0.64703        -1.39346        -1.99534
C           4.26590        -1.25628        -0.54387
C           4.76666        -1.03526         0.91136
C           4.90932        -2.56925        -1.13016
C           4.61182        -2.87457        -2.60451
C           6.44460        -2.55431        -1.04797
H           0.67576         1.06550         0.84451
H           0.45312        -0.69765         0.71875
H           0.39517         0.37754        -0.72596
H           2.31165        -2.02031         0.07118
H           2.34814        -2.20505        -2.46522
H           2.38574        -0.44797        -2.58856
H           0.40324        -2.14248        -1.43936
H           4.63561        -0.39629        -1.12043
H           4.45987        -1.86251         1.56109
H           4.38615        -0.10459         1.34449
H           5.85696        -0.95320         0.96595
H           4.54554        -3.41395        -0.53099
H           4.68453        -1.97102        -3.21972
H           3.64895        -3.36244        -2.74110
H           5.30387        -3.61713        -3.01359
H           6.85051        -1.71017        -1.61674
H           6.85658        -3.47499        -1.47816
H           6.81680        -2.50664        -0.02420

