%chk=CtCCCCqCCCCCrCCCCCCC.chk
%NProcShared=20
# opt freq b3lyp/6-31g(2df,p)

Title Card Required 

0  1
C           1.05733        -0.04392        -0.06917
C           2.36119        -0.04392        -0.06917
C           3.88119        -0.04392        -0.06917
C           4.42919        -1.15512        -0.92032
C           5.96275        -1.17484        -0.88457
C           6.54295        -1.39633         0.54084
C           6.26154        -0.28151         1.52198
C           6.72895        -0.48287         2.93371
C           6.07468         0.61959         3.77792
C           6.46592         0.44719         5.22001
C           6.44091        -2.27539        -1.84505
C           7.95801        -2.30450        -1.92291
C           8.45082        -3.41211        -2.82538
C           9.97233        -3.41403        -2.80306
C          10.50010        -4.52779        -3.68593
C          12.02131        -4.53625        -3.68687
C          12.53763        -5.64729        -4.57957
H          -0.00828        -0.04404        -0.06919
H           3.87612        -0.26723         0.97934
H           4.26969         0.94939        -0.30280
H           4.07530        -1.02262        -1.95315
H           4.02525        -2.12120        -0.58898
H           6.32016        -0.20994        -1.26942
H           7.63246        -1.46093         0.50515
H           6.16742        -2.34953         0.92663
H           5.22022        -0.30360         1.76244
H           6.49709         0.70196         1.11310
H           7.81943        -0.46156         2.98672
H           6.37470        -1.45866         3.28694
H           4.97523         0.57656         3.69954
H           6.36690         1.60854         3.40573
H           6.08721        -0.50719         5.59822
H           6.05138         1.25473         5.82649
H           7.55513         0.45361         5.30792
H           6.03107        -2.10168        -2.84950
H           6.06115        -3.25101        -1.51568
H           8.39179        -2.49115        -0.93795
H           8.32924        -1.33111        -2.26535
H           8.07700        -3.26704        -3.84440
H           8.07180        -4.37645        -2.46477
H          10.33205        -3.55067        -1.77450
H          10.35020        -2.44325        -3.14736
H          10.12456        -4.39167        -4.70708
H          10.12034        -5.49154        -3.32506
H          12.39619        -4.67758        -2.66631
H          12.40027        -3.57084        -4.04214
H          12.18697        -6.62203        -4.22547
H          13.63040        -5.65343        -4.58401
H          12.18783        -5.51033        -5.60786

