%chk=NdC1CCN[CH]C2CCCdCC12.chk
%NProcShared=20
# opt freq b3lyp/6-31g(2df,p)

Title Card Required 

0  2
N           3.22572        -1.80885        -0.78889
C           3.85402        -2.56731         0.18625
C           3.34398        -1.74626         1.30792
C           4.40742        -0.51085         0.84850
N           5.32582        -1.18952         1.68771
C           6.66510        -1.27388         1.49136
C           6.98400        -2.71025         1.49396
C           8.47447        -2.54941         1.04903
C           9.15267        -3.62861         0.30047
C           8.17494        -4.74341         0.14341
C           6.77943        -4.77014         0.26580
C           5.61852        -3.60326         0.64753
H           2.32880        -1.04384        -0.46135
H           2.39378        -2.32201         1.07494
H           2.94831        -1.54559         2.30185
H           4.47268         0.50416         1.19892
H           4.82425        -0.54234        -0.21972
H           5.27653        -1.91716         1.04807
H           7.30137        -0.45082         1.65109
H           7.04155        -3.07651         2.55343
H           9.10966        -2.28263         1.92368
H           8.56836        -1.69151         0.38031
H          10.12816        -3.85871         0.79681
H           9.45170        -3.25108        -0.68260
H           8.78436        -5.64552        -0.01993
H           6.54995        -5.80480         0.57037
H           5.18130        -4.07413         1.57987

