%chk=Odc1ccccc2cqcccc1rdCCdCCdCCd2.chk
%NProcShared=20
# opt freq b3lyp/6-31g(2df,p)

Title Card Required 

0  1
O           2.23928         0.59583         0.20034
C           3.37904         0.13160        -0.01671
C           3.22227        -1.19428        -0.63766
C           4.46926        -1.53107        -0.81888
C           5.17484        -2.64168        -1.37776
C           6.49934        -2.82214        -1.53630
C           7.85701        -3.95505        -1.81676
C           8.89838        -3.07801        -1.41528
C           9.14415        -1.68202        -0.85657
C           8.39747        -0.53326        -0.33673
C           6.84356         0.43329         0.12513
C           5.18932         0.77910         0.28751
C           9.88280        -3.88515        -1.66630
C          11.19431        -3.89186        -1.88620
C          11.09072        -5.25821        -2.46571
C          12.38310        -5.43688        -2.74711
C          10.68584        -5.32648        -3.23254
C           8.74342        -4.98203        -2.97960
H           2.34645        -1.77606        -0.91586
H           5.13255        -0.82722        -0.47168
H           4.45369        -3.32538        -1.61681
H           6.60960        -1.90362        -0.99324
H          10.26534        -1.79173        -0.92546
H           7.61162        -1.07121        -0.57471
H           7.86420         0.98125         0.38176
H           4.46220         1.63610         0.68973
H           9.60512        -5.27513        -1.66284
H          11.92547        -3.15626        -1.57404
H          10.49622        -6.81114        -3.10974
H          13.22902        -4.74731        -2.31089
H          11.79720        -6.58179        -3.26640
H           7.63501        -5.56908        -2.77121

